<routes>
            <vType accel="1.0" decel="4.5" id="standard_car" length="5.0" minGap="2.5" maxSpeed="25" sigma="0.5" />

            <route id="W_N" edges="E1 -E3"/>
            <route id="W_E" edges="E1 -E2"/>
            <route id="W_S" edges="E1 -E4"/>
            <route id="N_W" edges="E3 -E1"/>
            <route id="N_E" edges="E3 -E2"/>
            <route id="N_S" edges="E3 -E4"/>
            <route id="E_W" edges="E2 -E1"/>
            <route id="E_N" edges="E2 -E3"/>
            <route id="E_S" edges="E2 -E4"/>
            <route id="S_W" edges="E4 -E1"/>
            <route id="S_N" edges="E4 -E3"/>
            <route id="S_E" edges="E4 -E2"/>
    <vehicle id="E_W_0" type="standard_car" route="E_W" depart="9.0" departLane="random" departSpeed="10" />
    <vehicle id="E_W_1" type="standard_car" route="E_W" depart="34.0" departLane="random" departSpeed="10" />
    <vehicle id="W_E_2" type="standard_car" route="W_E" depart="37.0" departLane="random" departSpeed="10" />
    <vehicle id="E_W_3" type="standard_car" route="E_W" depart="52.0" departLane="random" departSpeed="10" />
    <vehicle id="N_S_4" type="standard_car" route="N_S" depart="67.0" departLane="random" departSpeed="10" />
    <vehicle id="E_W_5" type="standard_car" route="E_W" depart="67.0" departLane="random" departSpeed="10" />
    <vehicle id="S_N_6" type="standard_car" route="S_N" depart="69.0" departLane="random" departSpeed="10" />
    <vehicle id="W_E_7" type="standard_car" route="W_E" depart="72.0" departLane="random" departSpeed="10" />
    <vehicle id="W_E_8" type="standard_car" route="W_E" depart="77.0" departLane="random" departSpeed="10" />
    <vehicle id="S_N_9" type="standard_car" route="S_N" depart="85.0" departLane="random" departSpeed="10" />
    <vehicle id="W_N_10" type="standard_car" route="W_N" depart="88.0" departLane="random" departSpeed="10" />
    <vehicle id="S_N_11" type="standard_car" route="S_N" depart="90.0" departLane="random" departSpeed="10" />
    <vehicle id="N_S_12" type="standard_car" route="N_S" depart="90.0" departLane="random" departSpeed="10" />
    <vehicle id="E_W_13" type="standard_car" route="E_W" depart="91.0" departLane="random" departSpeed="10" />
    <vehicle id="S_N_14" type="standard_car" route="S_N" depart="91.0" departLane="random" departSpeed="10" />
    <vehicle id="W_E_15" type="standard_car" route="W_E" depart="95.0" departLane="random" departSpeed="10" />
    <vehicle id="N_S_16" type="standard_car" route="N_S" depart="99.0" departLane="random" departSpeed="10" />
    <vehicle id="E_S_17" type="standard_car" route="E_S" depart="104.0" departLane="random" departSpeed="10" />
    <vehicle id="E_W_18" type="standard_car" route="E_W" depart="113.0" departLane="random" departSpeed="10" />
    <vehicle id="N_S_19" type="standard_car" route="N_S" depart="117.0" departLane="random" departSpeed="10" />
    <vehicle id="W_E_20" type="standard_car" route="W_E" depart="118.0" departLane="random" departSpeed="10" />
    <vehicle id="N_W_21" type="standard_car" route="N_W" depart="124.0" departLane="random" departSpeed="10" />
    <vehicle id="W_E_22" type="standard_car" route="W_E" depart="126.0" departLane="random" departSpeed="10" />
    <vehicle id="E_N_23" type="standard_car" route="E_N" depart="128.0" departLane="random" departSpeed="10" />
    <vehicle id="W_E_24" type="standard_car" route="W_E" depart="128.0" departLane="random" departSpeed="10" />
    <vehicle id="E_N_25" type="standard_car" route="E_N" depart="130.0" departLane="random" departSpeed="10" />
    <vehicle id="E_W_26" type="standard_car" route="E_W" depart="130.0" departLane="random" departSpeed="10" />
    <vehicle id="S_N_27" type="standard_car" route="S_N" depart="130.0" departLane="random" departSpeed="10" />
    <vehicle id="N_S_28" type="standard_car" route="N_S" depart="132.0" departLane="random" departSpeed="10" />
    <vehicle id="S_E_29" type="standard_car" route="S_E" depart="140.0" departLane="random" departSpeed="10" />
    <vehicle id="W_E_30" type="standard_car" route="W_E" depart="141.0" departLane="random" departSpeed="10" />
    <vehicle id="E_W_31" type="standard_car" route="E_W" depart="143.0" departLane="random" departSpeed="10" />
    <vehicle id="N_E_32" type="standard_car" route="N_E" depart="144.0" departLane="random" departSpeed="10" />
    <vehicle id="E_W_33" type="standard_car" route="E_W" depart="145.0" departLane="random" departSpeed="10" />
    <vehicle id="E_W_34" type="standard_car" route="E_W" depart="146.0" departLane="random" departSpeed="10" />
    <vehicle id="S_N_35" type="standard_car" route="S_N" depart="146.0" departLane="random" departSpeed="10" />
    <vehicle id="E_N_36" type="standard_car" route="E_N" depart="148.0" departLane="random" departSpeed="10" />
    <vehicle id="N_S_37" type="standard_car" route="N_S" depart="149.0" departLane="random" departSpeed="10" />
    <vehicle id="E_W_38" type="standard_car" route="E_W" depart="154.0" departLane="random" departSpeed="10" />
    <vehicle id="S_N_39" type="standard_car" route="S_N" depart="158.0" departLane="random" departSpeed="10" />
    <vehicle id="S_N_40" type="standard_car" route="S_N" depart="162.0" departLane="random" departSpeed="10" />
    <vehicle id="S_N_41" type="standard_car" route="S_N" depart="162.0" departLane="random" departSpeed="10" />
    <vehicle id="S_N_42" type="standard_car" route="S_N" depart="163.0" departLane="random" departSpeed="10" />
    <vehicle id="N_S_43" type="standard_car" route="N_S" depart="165.0" departLane="random" departSpeed="10" />
    <vehicle id="E_W_44" type="standard_car" route="E_W" depart="165.0" departLane="random" departSpeed="10" />
    <vehicle id="N_S_45" type="standard_car" route="N_S" depart="171.0" departLane="random" departSpeed="10" />
    <vehicle id="S_N_46" type="standard_car" route="S_N" depart="172.0" departLane="random" departSpeed="10" />
    <vehicle id="S_N_47" type="standard_car" route="S_N" depart="172.0" departLane="random" departSpeed="10" />
    <vehicle id="S_N_48" type="standard_car" route="S_N" depart="172.0" departLane="random" departSpeed="10" />
    <vehicle id="E_S_49" type="standard_car" route="E_S" depart="178.0" departLane="random" departSpeed="10" />
    <vehicle id="E_S_50" type="standard_car" route="E_S" depart="186.0" departLane="random" departSpeed="10" />
    <vehicle id="W_E_51" type="standard_car" route="W_E" depart="186.0" departLane="random" departSpeed="10" />
    <vehicle id="S_N_52" type="standard_car" route="S_N" depart="187.0" departLane="random" departSpeed="10" />
    <vehicle id="W_E_53" type="standard_car" route="W_E" depart="189.0" departLane="random" departSpeed="10" />
    <vehicle id="S_N_54" type="standard_car" route="S_N" depart="190.0" departLane="random" departSpeed="10" />
    <vehicle id="E_W_55" type="standard_car" route="E_W" depart="191.0" departLane="random" departSpeed="10" />
    <vehicle id="E_N_56" type="standard_car" route="E_N" depart="191.0" departLane="random" departSpeed="10" />
    <vehicle id="E_S_57" type="standard_car" route="E_S" depart="192.0" departLane="random" departSpeed="10" />
    <vehicle id="E_N_58" type="standard_car" route="E_N" depart="195.0" departLane="random" departSpeed="10" />
    <vehicle id="N_S_59" type="standard_car" route="N_S" depart="204.0" departLane="random" departSpeed="10" />
    <vehicle id="E_N_60" type="standard_car" route="E_N" depart="209.0" departLane="random" departSpeed="10" />
    <vehicle id="W_N_61" type="standard_car" route="W_N" depart="214.0" departLane="random" departSpeed="10" />
    <vehicle id="S_N_62" type="standard_car" route="S_N" depart="215.0" departLane="random" departSpeed="10" />
    <vehicle id="N_W_63" type="standard_car" route="N_W" depart="216.0" departLane="random" departSpeed="10" />
    <vehicle id="E_W_64" type="standard_car" route="E_W" depart="216.0" departLane="random" departSpeed="10" />
    <vehicle id="W_E_65" type="standard_car" route="W_E" depart="217.0" departLane="random" departSpeed="10" />
    <vehicle id="N_S_66" type="standard_car" route="N_S" depart="221.0" departLane="random" departSpeed="10" />
    <vehicle id="W_N_67" type="standard_car" route="W_N" depart="229.0" departLane="random" departSpeed="10" />
    <vehicle id="N_S_68" type="standard_car" route="N_S" depart="231.0" departLane="random" departSpeed="10" />
    <vehicle id="N_S_69" type="standard_car" route="N_S" depart="232.0" departLane="random" departSpeed="10" />
    <vehicle id="E_W_70" type="standard_car" route="E_W" depart="235.0" departLane="random" departSpeed="10" />
    <vehicle id="W_E_71" type="standard_car" route="W_E" depart="248.0" departLane="random" departSpeed="10" />
    <vehicle id="E_W_72" type="standard_car" route="E_W" depart="248.0" departLane="random" departSpeed="10" />
    <vehicle id="N_S_73" type="standard_car" route="N_S" depart="250.0" departLane="random" departSpeed="10" />
    <vehicle id="E_W_74" type="standard_car" route="E_W" depart="250.0" departLane="random" departSpeed="10" />
    <vehicle id="N_S_75" type="standard_car" route="N_S" depart="251.0" departLane="random" departSpeed="10" />
    <vehicle id="E_N_76" type="standard_car" route="E_N" depart="262.0" departLane="random" departSpeed="10" />
    <vehicle id="E_W_77" type="standard_car" route="E_W" depart="270.0" departLane="random" departSpeed="10" />
    <vehicle id="N_S_78" type="standard_car" route="N_S" depart="272.0" departLane="random" departSpeed="10" />
    <vehicle id="E_W_79" type="standard_car" route="E_W" depart="276.0" departLane="random" departSpeed="10" />
    <vehicle id="W_E_80" type="standard_car" route="W_E" depart="277.0" departLane="random" departSpeed="10" />
    <vehicle id="S_N_81" type="standard_car" route="S_N" depart="281.0" departLane="random" departSpeed="10" />
    <vehicle id="E_W_82" type="standard_car" route="E_W" depart="287.0" departLane="random" departSpeed="10" />
    <vehicle id="E_N_83" type="standard_car" route="E_N" depart="290.0" departLane="random" departSpeed="10" />
    <vehicle id="N_S_84" type="standard_car" route="N_S" depart="292.0" departLane="random" departSpeed="10" />
    <vehicle id="N_S_85" type="standard_car" route="N_S" depart="302.0" departLane="random" departSpeed="10" />
    <vehicle id="S_N_86" type="standard_car" route="S_N" depart="307.0" departLane="random" departSpeed="10" />
    <vehicle id="N_S_87" type="standard_car" route="N_S" depart="311.0" departLane="random" departSpeed="10" />
    <vehicle id="S_N_88" type="standard_car" route="S_N" depart="312.0" departLane="random" departSpeed="10" />
    <vehicle id="W_E_89" type="standard_car" route="W_E" depart="313.0" departLane="random" departSpeed="10" />
    <vehicle id="W_E_90" type="standard_car" route="W_E" depart="313.0" departLane="random" departSpeed="10" />
    <vehicle id="S_N_91" type="standard_car" route="S_N" depart="314.0" departLane="random" departSpeed="10" />
    <vehicle id="E_W_92" type="standard_car" route="E_W" depart="316.0" departLane="random" departSpeed="10" />
    <vehicle id="E_W_93" type="standard_car" route="E_W" depart="322.0" departLane="random" departSpeed="10" />
    <vehicle id="E_W_94" type="standard_car" route="E_W" depart="325.0" departLane="random" departSpeed="10" />
    <vehicle id="S_N_95" type="standard_car" route="S_N" depart="333.0" departLane="random" departSpeed="10" />
    <vehicle id="E_W_96" type="standard_car" route="E_W" depart="341.0" departLane="random" departSpeed="10" />
    <vehicle id="N_S_97" type="standard_car" route="N_S" depart="347.0" departLane="random" departSpeed="10" />
    <vehicle id="S_N_98" type="standard_car" route="S_N" depart="359.0" departLane="random" departSpeed="10" />
    <vehicle id="W_N_99" type="standard_car" route="W_N" depart="362.0" departLane="random" departSpeed="10" />
</routes>
