<?xml version="1.0" encoding="UTF-8"?>

<!-- generated on 03/09/21 20:41:43 by Eclipse SUMO netedit Version 1.8.0
<configuration xmlns:xsi="http://www.w3.org/2001/XMLSchema-instance" xsi:noNamespaceSchemaLocation="http://sumo.dlr.de/xsd/netconvertConfiguration.xsd">

    <input>
        <sumo-net-file value="D:\3_year\6%20sem\AI\project_2\environment\env.net.xml"/>
    </input>

    <output>
        <output-file value="D:\3_year\6%20sem\AI\project_2\environment\env.net.xml"/>
    </output>

    <processing>
        <geometry.min-radius.fix.railways value="false"/>
        <geometry.max-grade.fix value="false"/>
        <offset.disable-normalization value="true"/>
        <lefthand value="false"/>
    </processing>

    <junctions>
        <no-turnarounds value="true"/>
        <junctions.corner-detail value="5"/>
        <junctions.limit-turn-speed value="5.5"/>
        <rectangular-lane-cut value="false"/>
    </junctions>

    <pedestrian>
        <walkingareas value="false"/>
    </pedestrian>

    <report>
        <aggregate-warnings value="5"/>
    </report>

</configuration>
-->

<net version="1.6" junctionCornerDetail="5" limitTurnSpeed="5.50" xmlns:xsi="http://www.w3.org/2001/XMLSchema-instance" xsi:noNamespaceSchemaLocation="http://sumo.dlr.de/xsd/net_file.xsd">

    <location netOffset="0.00,0.00" convBoundary="-400.00,-400.00,400.00,400.00" origBoundary="-10000000000.00,-10000000000.00,10000000000.00,10000000000.00" projParameter="!"/>

    <edge id=":N2_0" function="internal">
        <lane id=":N2_0_0" index="0" speed="6.51" length="9.03" shape="-1.60,7.20 -1.95,4.75 -3.00,3.00 -4.75,1.95 -7.20,1.60"/>
    </edge>
    <edge id=":N2_1" function="internal">
        <lane id=":N2_1_0" index="0" speed="10.00" length="14.40" shape="-1.60,7.20 -1.60,-7.20"/>
    </edge>
    <edge id=":N2_2" function="internal">
        <lane id=":N2_2_0" index="0" speed="8.00" length="14.19" shape="-1.60,7.20 -1.05,3.35 0.60,0.60 3.35,-1.05 7.20,-1.60"/>
    </edge>
    <edge id=":N2_3" function="internal">
        <lane id=":N2_3_0" index="0" speed="6.51" length="9.03" shape="7.20,1.60 4.75,1.95 3.00,3.00 1.95,4.75 1.60,7.20"/>
    </edge>
    <edge id=":N2_4" function="internal">
        <lane id=":N2_4_0" index="0" speed="11.95" length="14.40" shape="7.20,1.60 -7.20,1.60"/>
    </edge>
    <edge id=":N2_5" function="internal">
        <lane id=":N2_5_0" index="0" speed="8.00" length="14.19" shape="7.20,1.60 3.35,1.05 0.60,-0.60 -1.05,-3.35 -1.60,-7.20"/>
    </edge>
    <edge id=":N2_6" function="internal">
        <lane id=":N2_6_0" index="0" speed="6.51" length="9.03" shape="1.60,-7.20 1.95,-4.75 3.00,-3.00 4.75,-1.95 7.20,-1.60"/>
    </edge>
    <edge id=":N2_7" function="internal">
        <lane id=":N2_7_0" index="0" speed="10.00" length="14.40" shape="1.60,-7.20 1.60,7.20"/>
    </edge>
    <edge id=":N2_8" function="internal">
        <lane id=":N2_8_0" index="0" speed="8.00" length="14.19" shape="1.60,-7.20 1.05,-3.35 -0.60,-0.60 -3.35,1.05 -7.20,1.60"/>
    </edge>
    <edge id=":N2_9" function="internal">
        <lane id=":N2_9_0" index="0" speed="6.51" length="9.03" shape="-7.20,-1.60 -4.75,-1.95 -3.00,-3.00 -1.95,-4.75 -1.60,-7.20"/>
    </edge>
    <edge id=":N2_10" function="internal">
        <lane id=":N2_10_0" index="0" speed="11.95" length="14.40" shape="-7.20,-1.60 7.20,-1.60"/>
    </edge>
    <edge id=":N2_11" function="internal">
        <lane id=":N2_11_0" index="0" speed="8.00" length="14.19" shape="-7.20,-1.60 -3.35,-1.05 -0.60,0.60 1.05,3.35 1.60,7.20"/>
    </edge>

    <edge id="-E1" from="N2" to="N1" priority="-1">
        <lane id="-E1_0" index="0" speed="13.89" length="392.80" shape="-7.20,1.60 -400.00,1.60"/>
    </edge>
    <edge id="-E2" from="N2" to="N3" priority="-1">
        <lane id="-E2_0" index="0" speed="10.00" length="392.80" shape="7.20,-1.60 400.00,-1.60"/>
    </edge>
    <edge id="-E3" from="N2" to="N4" priority="-1">
        <lane id="-E3_0" index="0" speed="10.00" length="392.80" shape="1.60,7.20 1.60,400.00"/>
    </edge>
    <edge id="-E4" from="N2" to="n5" priority="-1">
        <lane id="-E4_0" index="0" speed="10.00" length="392.80" shape="-1.60,-7.20 -1.60,-400.00"/>
    </edge>
    <edge id="E1" from="N1" to="N2" priority="-1">
        <lane id="E1_0" index="0" speed="13.89" length="392.80" shape="-400.00,-1.60 -7.20,-1.60"/>
    </edge>
    <edge id="E2" from="N3" to="N2" priority="-1">
        <lane id="E2_0" index="0" speed="10.00" length="392.80" shape="400.00,1.60 7.20,1.60"/>
    </edge>
    <edge id="E3" from="N4" to="N2" priority="-1">
        <lane id="E3_0" index="0" speed="10.00" length="392.80" shape="-1.60,400.00 -1.60,7.20"/>
    </edge>
    <edge id="E4" from="n5" to="N2" priority="-1">
        <lane id="E4_0" index="0" speed="10.00" length="392.80" shape="1.60,-400.00 1.60,-7.20"/>
    </edge>

    <tlLogic id="N2" type="static" programID="0" offset="0">
        <phase duration="100" state="GGgrrrrrrrrr"/>
        <phase duration="100" state="rrrGGgrrrrrr"/>
        <phase duration="100" state="rrrrrrGGgrrr"/>
        <phase duration="100" state="rrrrrrrrrGGg"/>
    </tlLogic>

    <junction id="N1" type="dead_end" x="-400.00" y="0.00" incLanes="-E1_0" intLanes="" shape="-400.00,0.00 -400.00,3.20 -400.00,0.00"/>
    <junction id="N2" type="traffic_light" x="0.00" y="0.00" incLanes="E3_0 E2_0 E4_0 E1_0" intLanes=":N2_0_0 :N2_1_0 :N2_2_0 :N2_3_0 :N2_4_0 :N2_5_0 :N2_6_0 :N2_7_0 :N2_8_0 :N2_9_0 :N2_10_0 :N2_11_0" shape="-3.20,7.20 3.20,7.20 3.64,4.98 4.20,4.20 4.98,3.64 5.98,3.31 7.20,3.20 7.20,-3.20 4.98,-3.64 4.20,-4.20 3.64,-4.98 3.31,-5.98 3.20,-7.20 -3.20,-7.20 -3.64,-4.98 -4.20,-4.20 -4.98,-3.64 -5.98,-3.31 -7.20,-3.20 -7.20,3.20 -4.98,3.64 -4.20,4.20 -3.64,4.98 -3.31,5.98">
        <request index="0"  response="000000010000" foes="000100010000" cont="0"/>
        <request index="1"  response="111000110000" foes="111100110000" cont="0"/>
        <request index="2"  response="110011110000" foes="110011110000" cont="0"/>
        <request index="3"  response="000000000000" foes="100010000000" cont="0"/>
        <request index="4"  response="000000000000" foes="100110000111" cont="0"/>
        <request index="5"  response="011000000000" foes="011110000110" cont="0"/>
        <request index="6"  response="010000000000" foes="010000000100" cont="0"/>
        <request index="7"  response="110000111000" foes="110000111100" cont="0"/>
        <request index="8"  response="110000110011" foes="110000110011" cont="0"/>
        <request index="9"  response="000000000000" foes="000000100010" cont="0"/>
        <request index="10" response="000000000000" foes="000111100110" cont="0"/>
        <request index="11" response="000000011000" foes="000110011110" cont="0"/>
    </junction>
    <junction id="N3" type="dead_end" x="400.00" y="0.00" incLanes="-E2_0" intLanes="" shape="400.00,0.00 400.00,-3.20 400.00,0.00"/>
    <junction id="N4" type="dead_end" x="0.00" y="400.00" incLanes="-E3_0" intLanes="" shape="0.00,400.00 3.20,400.00 0.00,400.00"/>
    <junction id="n5" type="dead_end" x="0.00" y="-400.00" incLanes="-E4_0" intLanes="" shape="0.00,-400.00 -3.20,-400.00 0.00,-400.00"/>

    <connection from="E1" to="-E4" fromLane="0" toLane="0" via=":N2_9_0" tl="N2" linkIndex="9" dir="r" state="O"/>
    <connection from="E1" to="-E2" fromLane="0" toLane="0" via=":N2_10_0" tl="N2" linkIndex="10" dir="s" state="O"/>
    <connection from="E1" to="-E3" fromLane="0" toLane="0" via=":N2_11_0" tl="N2" linkIndex="11" dir="l" state="o"/>
    <connection from="E2" to="-E3" fromLane="0" toLane="0" via=":N2_3_0" tl="N2" linkIndex="3" dir="r" state="O"/>
    <connection from="E2" to="-E1" fromLane="0" toLane="0" via=":N2_4_0" tl="N2" linkIndex="4" dir="s" state="O"/>
    <connection from="E2" to="-E4" fromLane="0" toLane="0" via=":N2_5_0" tl="N2" linkIndex="5" dir="l" state="o"/>
    <connection from="E3" to="-E1" fromLane="0" toLane="0" via=":N2_0_0" tl="N2" linkIndex="0" dir="r" state="o"/>
    <connection from="E3" to="-E4" fromLane="0" toLane="0" via=":N2_1_0" tl="N2" linkIndex="1" dir="s" state="o"/>
    <connection from="E3" to="-E2" fromLane="0" toLane="0" via=":N2_2_0" tl="N2" linkIndex="2" dir="l" state="o"/>
    <connection from="E4" to="-E2" fromLane="0" toLane="0" via=":N2_6_0" tl="N2" linkIndex="6" dir="r" state="o"/>
    <connection from="E4" to="-E3" fromLane="0" toLane="0" via=":N2_7_0" tl="N2" linkIndex="7" dir="s" state="o"/>
    <connection from="E4" to="-E1" fromLane="0" toLane="0" via=":N2_8_0" tl="N2" linkIndex="8" dir="l" state="o"/>

    <connection from=":N2_0" to="-E1" fromLane="0" toLane="0" dir="r" state="M"/>
    <connection from=":N2_1" to="-E4" fromLane="0" toLane="0" dir="s" state="M"/>
    <connection from=":N2_2" to="-E2" fromLane="0" toLane="0" dir="l" state="M"/>
    <connection from=":N2_3" to="-E3" fromLane="0" toLane="0" dir="r" state="M"/>
    <connection from=":N2_4" to="-E1" fromLane="0" toLane="0" dir="s" state="M"/>
    <connection from=":N2_5" to="-E4" fromLane="0" toLane="0" dir="l" state="M"/>
    <connection from=":N2_6" to="-E2" fromLane="0" toLane="0" dir="r" state="M"/>
    <connection from=":N2_7" to="-E3" fromLane="0" toLane="0" dir="s" state="M"/>
    <connection from=":N2_8" to="-E1" fromLane="0" toLane="0" dir="l" state="M"/>
    <connection from=":N2_9" to="-E4" fromLane="0" toLane="0" dir="r" state="M"/>
    <connection from=":N2_10" to="-E2" fromLane="0" toLane="0" dir="s" state="M"/>
    <connection from=":N2_11" to="-E3" fromLane="0" toLane="0" dir="l" state="M"/>

</net>
