<?xml version="1.0" encoding="UTF-8"?>

<!-- generated on 03/07/21 20:20:02 by Eclipse SUMO netedit Version 1.8.0
<configuration xmlns:xsi="http://www.w3.org/2001/XMLSchema-instance" xsi:noNamespaceSchemaLocation="http://sumo.dlr.de/xsd/netconvertConfiguration.xsd">

    <input>
        <sumo-net-file value="D:\3_year\6%20sem\AI\project_2\environment\env.net.xml"/>
    </input>

    <output>
        <output-file value="D:\3_year\6%20sem\AI\project_2\environment\env.net.xml"/>
    </output>

    <processing>
        <geometry.min-radius.fix.railways value="false"/>
        <geometry.max-grade.fix value="false"/>
        <offset.disable-normalization value="true"/>
        <lefthand value="false"/>
    </processing>

    <junctions>
        <no-turnarounds value="true"/>
        <junctions.corner-detail value="5"/>
        <junctions.limit-turn-speed value="5.5"/>
        <rectangular-lane-cut value="false"/>
    </junctions>

    <pedestrian>
        <walkingareas value="false"/>
    </pedestrian>

    <report>
        <aggregate-warnings value="5"/>
    </report>

</configuration>
-->

<net version="1.6" junctionCornerDetail="5" limitTurnSpeed="5.50" xmlns:xsi="http://www.w3.org/2001/XMLSchema-instance" xsi:noNamespaceSchemaLocation="http://sumo.dlr.de/xsd/net_file.xsd">

    <location netOffset="0.00,0.00" convBoundary="50.00,20.00,150.00,120.00" origBoundary="-10000000000.00,-10000000000.00,10000000000.00,10000000000.00" projParameter="!"/>

    <edge id=":N2_0" function="internal">
        <lane id=":N2_0_0" index="0" speed="6.51" length="9.03" shape="98.40,77.20 98.05,74.75 97.00,73.00 95.25,71.95 92.80,71.60"/>
    </edge>
    <edge id=":N2_1" function="internal">
        <lane id=":N2_1_0" index="0" speed="10.00" length="14.40" shape="98.40,77.20 98.40,62.80"/>
    </edge>
    <edge id=":N2_2" function="internal">
        <lane id=":N2_2_0" index="0" speed="8.00" length="5.93" shape="98.40,77.20 98.95,73.35 100.00,71.60"/>
    </edge>
    <edge id=":N2_12" function="internal">
        <lane id=":N2_12_0" index="0" speed="8.00" length="8.26" shape="100.00,71.60 100.60,70.60 103.35,68.95 107.20,68.40"/>
    </edge>
    <edge id=":N2_3" function="internal">
        <lane id=":N2_3_0" index="0" speed="6.51" length="9.03" shape="107.20,71.60 104.75,71.95 103.00,73.00 101.95,74.75 101.60,77.20"/>
    </edge>
    <edge id=":N2_4" function="internal">
        <lane id=":N2_4_0" index="0" speed="11.95" length="14.40" shape="107.20,71.60 92.80,71.60"/>
    </edge>
    <edge id=":N2_5" function="internal">
        <lane id=":N2_5_0" index="0" speed="8.00" length="5.93" shape="107.20,71.60 103.35,71.05 101.60,70.00"/>
    </edge>
    <edge id=":N2_13" function="internal">
        <lane id=":N2_13_0" index="0" speed="8.00" length="8.26" shape="101.60,70.00 100.60,69.40 98.95,66.65 98.40,62.80"/>
    </edge>
    <edge id=":N2_6" function="internal">
        <lane id=":N2_6_0" index="0" speed="6.51" length="9.03" shape="101.60,62.80 101.95,65.25 103.00,67.00 104.75,68.05 107.20,68.40"/>
    </edge>
    <edge id=":N2_7" function="internal">
        <lane id=":N2_7_0" index="0" speed="10.00" length="14.40" shape="101.60,62.80 101.60,77.20"/>
    </edge>
    <edge id=":N2_8" function="internal">
        <lane id=":N2_8_0" index="0" speed="8.00" length="5.93" shape="101.60,62.80 101.05,66.65 100.00,68.40"/>
    </edge>
    <edge id=":N2_14" function="internal">
        <lane id=":N2_14_0" index="0" speed="8.00" length="8.26" shape="100.00,68.40 99.40,69.40 96.65,71.05 92.80,71.60"/>
    </edge>
    <edge id=":N2_9" function="internal">
        <lane id=":N2_9_0" index="0" speed="6.51" length="9.03" shape="92.80,68.40 95.25,68.05 97.00,67.00 98.05,65.25 98.40,62.80"/>
    </edge>
    <edge id=":N2_10" function="internal">
        <lane id=":N2_10_0" index="0" speed="11.95" length="14.40" shape="92.80,68.40 107.20,68.40"/>
    </edge>
    <edge id=":N2_11" function="internal">
        <lane id=":N2_11_0" index="0" speed="8.00" length="5.93" shape="92.80,68.40 96.65,68.95 98.40,70.00"/>
    </edge>
    <edge id=":N2_15" function="internal">
        <lane id=":N2_15_0" index="0" speed="8.00" length="8.26" shape="98.40,70.00 99.40,70.60 101.05,73.35 101.60,77.20"/>
    </edge>

    <edge id="-E1" from="N2" to="N1" priority="-1">
        <lane id="-E1_0" index="0" speed="13.89" length="42.80" shape="92.80,71.60 50.00,71.60"/>
    </edge>
    <edge id="-E2" from="N2" to="N3" priority="-1">
        <lane id="-E2_0" index="0" speed="10.00" length="42.80" shape="107.20,68.40 150.00,68.40"/>
    </edge>
    <edge id="-E3" from="N2" to="N4" priority="-1">
        <lane id="-E3_0" index="0" speed="10.00" length="42.80" shape="101.60,77.20 101.60,120.00"/>
    </edge>
    <edge id="-E4" from="N2" to="n5" priority="-1">
        <lane id="-E4_0" index="0" speed="10.00" length="42.80" shape="98.40,62.80 98.40,20.00"/>
    </edge>
    <edge id="E1" from="N1" to="N2" priority="-1">
        <lane id="E1_0" index="0" speed="13.89" length="42.80" shape="50.00,68.40 92.80,68.40"/>
    </edge>
    <edge id="E2" from="N3" to="N2" priority="-1">
        <lane id="E2_0" index="0" speed="10.00" length="42.80" shape="150.00,71.60 107.20,71.60"/>
    </edge>
    <edge id="E3" from="N4" to="N2" priority="-1">
        <lane id="E3_0" index="0" speed="10.00" length="42.80" shape="98.40,120.00 98.40,77.20"/>
    </edge>
    <edge id="E4" from="n5" to="N2" priority="-1">
        <lane id="E4_0" index="0" speed="10.00" length="42.80" shape="101.60,20.00 101.60,62.80"/>
    </edge>

    <tlLogic id="N2" type="static" programID="0" offset="0">
        <phase duration="42" state="rrrGGgrrrGGg"/>
        <phase duration="3"  state="rrryyyrrryyy"/>
        <phase duration="42" state="GGgrrrGGgrrr"/>
        <phase duration="3"  state="yyyrrryyyrrr"/>
    </tlLogic>

    <junction id="N1" type="dead_end" x="50.00" y="70.00" incLanes="-E1_0" intLanes="" shape="50.00,70.00 50.00,73.20 50.00,70.00"/>
    <junction id="N2" type="traffic_light" x="100.00" y="70.00" incLanes="E3_0 E2_0 E4_0 E1_0" intLanes=":N2_0_0 :N2_1_0 :N2_12_0 :N2_3_0 :N2_4_0 :N2_13_0 :N2_6_0 :N2_7_0 :N2_14_0 :N2_9_0 :N2_10_0 :N2_15_0" shape="96.80,77.20 103.20,77.20 103.64,74.98 104.20,74.20 104.98,73.64 105.98,73.31 107.20,73.20 107.20,66.80 104.98,66.36 104.20,65.80 103.64,65.02 103.31,64.02 103.20,62.80 96.80,62.80 96.36,65.02 95.80,65.80 95.02,66.36 94.02,66.69 92.80,66.80 92.80,73.20 95.02,73.64 95.80,74.20 96.36,74.98 96.69,75.98">
        <request index="0"  response="000000010000" foes="000100010000" cont="0"/>
        <request index="1"  response="111000110000" foes="111100110000" cont="0"/>
        <request index="2"  response="110011110000" foes="110011110000" cont="1"/>
        <request index="3"  response="000000000000" foes="100010000000" cont="0"/>
        <request index="4"  response="000100000100" foes="100110000111" cont="0"/>
        <request index="5"  response="011100000100" foes="011110000110" cont="1"/>
        <request index="6"  response="010000000000" foes="010000000100" cont="0"/>
        <request index="7"  response="110000111000" foes="110000111100" cont="0"/>
        <request index="8"  response="110000110011" foes="110000110011" cont="1"/>
        <request index="9"  response="000000000000" foes="000000100010" cont="0"/>
        <request index="10" response="000100000100" foes="000111100110" cont="0"/>
        <request index="11" response="000100011100" foes="000110011110" cont="1"/>
    </junction>
    <junction id="N3" type="dead_end" x="150.00" y="70.00" incLanes="-E2_0" intLanes="" shape="150.00,70.00 150.00,66.80 150.00,70.00"/>
    <junction id="N4" type="dead_end" x="100.00" y="120.00" incLanes="-E3_0" intLanes="" shape="100.00,120.00 103.20,120.00 100.00,120.00"/>
    <junction id="n5" type="dead_end" x="100.00" y="20.00" incLanes="-E4_0" intLanes="" shape="100.00,20.00 96.80,20.00 100.00,20.00"/>

    <junction id=":N2_12_0" type="internal" x="100.00" y="71.60" incLanes=":N2_2_0 E4_0" intLanes=":N2_4_0 :N2_5_0 :N2_6_0 :N2_7_0 :N2_10_0 :N2_11_0"/>
    <junction id=":N2_13_0" type="internal" x="101.60" y="70.00" incLanes=":N2_5_0 E1_0" intLanes=":N2_1_0 :N2_2_0 :N2_7_0 :N2_8_0 :N2_9_0 :N2_10_0"/>
    <junction id=":N2_14_0" type="internal" x="100.00" y="68.40" incLanes=":N2_8_0 E3_0" intLanes=":N2_0_0 :N2_1_0 :N2_4_0 :N2_5_0 :N2_10_0 :N2_11_0"/>
    <junction id=":N2_15_0" type="internal" x="98.40" y="70.00" incLanes=":N2_11_0 E2_0" intLanes=":N2_1_0 :N2_2_0 :N2_3_0 :N2_4_0 :N2_7_0 :N2_8_0"/>

    <connection from="E1" to="-E4" fromLane="0" toLane="0" via=":N2_9_0" tl="N2" linkIndex="9" dir="r" state="O"/>
    <connection from="E1" to="-E2" fromLane="0" toLane="0" via=":N2_10_0" tl="N2" linkIndex="10" dir="s" state="O"/>
    <connection from="E1" to="-E3" fromLane="0" toLane="0" via=":N2_11_0" tl="N2" linkIndex="11" dir="l" state="o"/>
    <connection from="E2" to="-E3" fromLane="0" toLane="0" via=":N2_3_0" tl="N2" linkIndex="3" dir="r" state="O"/>
    <connection from="E2" to="-E1" fromLane="0" toLane="0" via=":N2_4_0" tl="N2" linkIndex="4" dir="s" state="O"/>
    <connection from="E2" to="-E4" fromLane="0" toLane="0" via=":N2_5_0" tl="N2" linkIndex="5" dir="l" state="o"/>
    <connection from="E3" to="-E1" fromLane="0" toLane="0" via=":N2_0_0" tl="N2" linkIndex="0" dir="r" state="o"/>
    <connection from="E3" to="-E4" fromLane="0" toLane="0" via=":N2_1_0" tl="N2" linkIndex="1" dir="s" state="o"/>
    <connection from="E3" to="-E2" fromLane="0" toLane="0" via=":N2_2_0" tl="N2" linkIndex="2" dir="l" state="o"/>
    <connection from="E4" to="-E2" fromLane="0" toLane="0" via=":N2_6_0" tl="N2" linkIndex="6" dir="r" state="o"/>
    <connection from="E4" to="-E3" fromLane="0" toLane="0" via=":N2_7_0" tl="N2" linkIndex="7" dir="s" state="o"/>
    <connection from="E4" to="-E1" fromLane="0" toLane="0" via=":N2_8_0" tl="N2" linkIndex="8" dir="l" state="o"/>

    <connection from=":N2_0" to="-E1" fromLane="0" toLane="0" dir="r" state="M"/>
    <connection from=":N2_1" to="-E4" fromLane="0" toLane="0" dir="s" state="M"/>
    <connection from=":N2_2" to="-E2" fromLane="0" toLane="0" via=":N2_12_0" dir="l" state="m"/>
    <connection from=":N2_12" to="-E2" fromLane="0" toLane="0" dir="l" state="M"/>
    <connection from=":N2_3" to="-E3" fromLane="0" toLane="0" dir="r" state="M"/>
    <connection from=":N2_4" to="-E1" fromLane="0" toLane="0" dir="s" state="M"/>
    <connection from=":N2_5" to="-E4" fromLane="0" toLane="0" via=":N2_13_0" dir="l" state="m"/>
    <connection from=":N2_13" to="-E4" fromLane="0" toLane="0" dir="l" state="M"/>
    <connection from=":N2_6" to="-E2" fromLane="0" toLane="0" dir="r" state="M"/>
    <connection from=":N2_7" to="-E3" fromLane="0" toLane="0" dir="s" state="M"/>
    <connection from=":N2_8" to="-E1" fromLane="0" toLane="0" via=":N2_14_0" dir="l" state="m"/>
    <connection from=":N2_14" to="-E1" fromLane="0" toLane="0" dir="l" state="M"/>
    <connection from=":N2_9" to="-E4" fromLane="0" toLane="0" dir="r" state="M"/>
    <connection from=":N2_10" to="-E2" fromLane="0" toLane="0" dir="s" state="M"/>
    <connection from=":N2_11" to="-E3" fromLane="0" toLane="0" via=":N2_15_0" dir="l" state="m"/>
    <connection from=":N2_15" to="-E3" fromLane="0" toLane="0" dir="l" state="M"/>

</net>
