<routes>
            <vType accel="1.0" decel="4.5" id="standard_car" length="5.0" minGap="2.5" maxSpeed="25" sigma="0.5" />

            <route id="W_N" edges="E1 -E3"/>
            <route id="W_E" edges="E1 -E2"/>
            <route id="W_S" edges="E1 -E4"/>
            <route id="N_W" edges="E3 -E1"/>
            <route id="N_E" edges="E3 -E2"/>
            <route id="N_S" edges="E3 -E4"/>
            <route id="E_W" edges="E2 -E1"/>
            <route id="E_N" edges="E2 -E3"/>
            <route id="E_S" edges="E2 -E4"/>
            <route id="S_W" edges="E4 -E1"/>
            <route id="S_N" edges="E4 -E3"/>
            <route id="S_E" edges="E4 -E2"/>
    <vehicle id="E_N_0" type="standard_car" route="E_N" depart="17.0" departLane="random" departSpeed="10" />
    <vehicle id="S_N_1" type="standard_car" route="S_N" depart="22.0" departLane="random" departSpeed="10" />
    <vehicle id="W_E_2" type="standard_car" route="W_E" depart="23.0" departLane="random" departSpeed="10" />
    <vehicle id="N_S_3" type="standard_car" route="N_S" depart="28.0" departLane="random" departSpeed="10" />
    <vehicle id="N_S_4" type="standard_car" route="N_S" depart="31.0" departLane="random" departSpeed="10" />
    <vehicle id="S_N_5" type="standard_car" route="S_N" depart="42.0" departLane="random" departSpeed="10" />
    <vehicle id="N_E_6" type="standard_car" route="N_E" depart="43.0" departLane="random" departSpeed="10" />
    <vehicle id="W_E_7" type="standard_car" route="W_E" depart="45.0" departLane="random" departSpeed="10" />
    <vehicle id="N_S_8" type="standard_car" route="N_S" depart="51.0" departLane="random" departSpeed="10" />
    <vehicle id="W_E_9" type="standard_car" route="W_E" depart="52.0" departLane="random" departSpeed="10" />
    <vehicle id="S_N_10" type="standard_car" route="S_N" depart="55.0" departLane="random" departSpeed="10" />
    <vehicle id="S_W_11" type="standard_car" route="S_W" depart="56.0" departLane="random" departSpeed="10" />
    <vehicle id="N_S_12" type="standard_car" route="N_S" depart="56.0" departLane="random" departSpeed="10" />
    <vehicle id="W_E_13" type="standard_car" route="W_E" depart="64.0" departLane="random" departSpeed="10" />
    <vehicle id="N_W_14" type="standard_car" route="N_W" depart="65.0" departLane="random" departSpeed="10" />
    <vehicle id="E_W_15" type="standard_car" route="E_W" depart="65.0" departLane="random" departSpeed="10" />
    <vehicle id="W_S_16" type="standard_car" route="W_S" depart="72.0" departLane="random" departSpeed="10" />
    <vehicle id="N_E_17" type="standard_car" route="N_E" depart="73.0" departLane="random" departSpeed="10" />
    <vehicle id="N_S_18" type="standard_car" route="N_S" depart="75.0" departLane="random" departSpeed="10" />
    <vehicle id="N_S_19" type="standard_car" route="N_S" depart="75.0" departLane="random" departSpeed="10" />
    <vehicle id="N_S_20" type="standard_car" route="N_S" depart="77.0" departLane="random" departSpeed="10" />
    <vehicle id="W_E_21" type="standard_car" route="W_E" depart="78.0" departLane="random" departSpeed="10" />
    <vehicle id="E_W_22" type="standard_car" route="E_W" depart="78.0" departLane="random" departSpeed="10" />
    <vehicle id="S_E_23" type="standard_car" route="S_E" depart="80.0" departLane="random" departSpeed="10" />
    <vehicle id="W_E_24" type="standard_car" route="W_E" depart="85.0" departLane="random" departSpeed="10" />
    <vehicle id="N_S_25" type="standard_car" route="N_S" depart="91.0" departLane="random" departSpeed="10" />
    <vehicle id="S_N_26" type="standard_car" route="S_N" depart="91.0" departLane="random" departSpeed="10" />
    <vehicle id="E_W_27" type="standard_car" route="E_W" depart="91.0" departLane="random" departSpeed="10" />
    <vehicle id="E_W_28" type="standard_car" route="E_W" depart="96.0" departLane="random" departSpeed="10" />
    <vehicle id="W_E_29" type="standard_car" route="W_E" depart="97.0" departLane="random" departSpeed="10" />
    <vehicle id="S_N_30" type="standard_car" route="S_N" depart="98.0" departLane="random" departSpeed="10" />
    <vehicle id="S_N_31" type="standard_car" route="S_N" depart="98.0" departLane="random" departSpeed="10" />
    <vehicle id="E_N_32" type="standard_car" route="E_N" depart="102.0" departLane="random" departSpeed="10" />
    <vehicle id="N_S_33" type="standard_car" route="N_S" depart="106.0" departLane="random" departSpeed="10" />
    <vehicle id="E_N_34" type="standard_car" route="E_N" depart="106.0" departLane="random" departSpeed="10" />
    <vehicle id="W_E_35" type="standard_car" route="W_E" depart="114.0" departLane="random" departSpeed="10" />
    <vehicle id="S_N_36" type="standard_car" route="S_N" depart="114.0" departLane="random" departSpeed="10" />
    <vehicle id="N_S_37" type="standard_car" route="N_S" depart="114.0" departLane="random" departSpeed="10" />
    <vehicle id="N_E_38" type="standard_car" route="N_E" depart="115.0" departLane="random" departSpeed="10" />
    <vehicle id="W_E_39" type="standard_car" route="W_E" depart="117.0" departLane="random" departSpeed="10" />
    <vehicle id="N_S_40" type="standard_car" route="N_S" depart="120.0" departLane="random" departSpeed="10" />
    <vehicle id="N_S_41" type="standard_car" route="N_S" depart="123.0" departLane="random" departSpeed="10" />
    <vehicle id="N_E_42" type="standard_car" route="N_E" depart="124.0" departLane="random" departSpeed="10" />
    <vehicle id="W_E_43" type="standard_car" route="W_E" depart="126.0" departLane="random" departSpeed="10" />
    <vehicle id="S_N_44" type="standard_car" route="S_N" depart="126.0" departLane="random" departSpeed="10" />
    <vehicle id="W_E_45" type="standard_car" route="W_E" depart="128.0" departLane="random" departSpeed="10" />
    <vehicle id="W_E_46" type="standard_car" route="W_E" depart="128.0" departLane="random" departSpeed="10" />
    <vehicle id="S_N_47" type="standard_car" route="S_N" depart="129.0" departLane="random" departSpeed="10" />
    <vehicle id="W_E_48" type="standard_car" route="W_E" depart="131.0" departLane="random" departSpeed="10" />
    <vehicle id="N_S_49" type="standard_car" route="N_S" depart="132.0" departLane="random" departSpeed="10" />
    <vehicle id="E_N_50" type="standard_car" route="E_N" depart="132.0" departLane="random" departSpeed="10" />
    <vehicle id="W_E_51" type="standard_car" route="W_E" depart="134.0" departLane="random" departSpeed="10" />
    <vehicle id="W_E_52" type="standard_car" route="W_E" depart="134.0" departLane="random" departSpeed="10" />
    <vehicle id="E_W_53" type="standard_car" route="E_W" depart="135.0" departLane="random" departSpeed="10" />
    <vehicle id="W_S_54" type="standard_car" route="W_S" depart="136.0" departLane="random" departSpeed="10" />
    <vehicle id="W_S_55" type="standard_car" route="W_S" depart="139.0" departLane="random" departSpeed="10" />
    <vehicle id="E_N_56" type="standard_car" route="E_N" depart="140.0" departLane="random" departSpeed="10" />
    <vehicle id="E_N_57" type="standard_car" route="E_N" depart="141.0" departLane="random" departSpeed="10" />
    <vehicle id="E_W_58" type="standard_car" route="E_W" depart="142.0" departLane="random" departSpeed="10" />
    <vehicle id="E_W_59" type="standard_car" route="E_W" depart="148.0" departLane="random" departSpeed="10" />
    <vehicle id="E_S_60" type="standard_car" route="E_S" depart="149.0" departLane="random" departSpeed="10" />
    <vehicle id="N_W_61" type="standard_car" route="N_W" depart="152.0" departLane="random" departSpeed="10" />
    <vehicle id="W_E_62" type="standard_car" route="W_E" depart="154.0" departLane="random" departSpeed="10" />
    <vehicle id="N_E_63" type="standard_car" route="N_E" depart="159.0" departLane="random" departSpeed="10" />
    <vehicle id="S_W_64" type="standard_car" route="S_W" depart="160.0" departLane="random" departSpeed="10" />
    <vehicle id="N_S_65" type="standard_car" route="N_S" depart="160.0" departLane="random" departSpeed="10" />
    <vehicle id="N_S_66" type="standard_car" route="N_S" depart="161.0" departLane="random" departSpeed="10" />
    <vehicle id="N_S_67" type="standard_car" route="N_S" depart="161.0" departLane="random" departSpeed="10" />
    <vehicle id="S_W_68" type="standard_car" route="S_W" depart="163.0" departLane="random" departSpeed="10" />
    <vehicle id="E_W_69" type="standard_car" route="E_W" depart="166.0" departLane="random" departSpeed="10" />
    <vehicle id="E_S_70" type="standard_car" route="E_S" depart="168.0" departLane="random" departSpeed="10" />
    <vehicle id="N_W_71" type="standard_car" route="N_W" depart="175.0" departLane="random" departSpeed="10" />
    <vehicle id="W_S_72" type="standard_car" route="W_S" depart="179.0" departLane="random" departSpeed="10" />
    <vehicle id="S_E_73" type="standard_car" route="S_E" depart="179.0" departLane="random" departSpeed="10" />
    <vehicle id="E_W_74" type="standard_car" route="E_W" depart="180.0" departLane="random" departSpeed="10" />
    <vehicle id="S_N_75" type="standard_car" route="S_N" depart="189.0" departLane="random" departSpeed="10" />
    <vehicle id="E_W_76" type="standard_car" route="E_W" depart="195.0" departLane="random" departSpeed="10" />
    <vehicle id="N_W_77" type="standard_car" route="N_W" depart="203.0" departLane="random" departSpeed="10" />
    <vehicle id="E_N_78" type="standard_car" route="E_N" depart="203.0" departLane="random" departSpeed="10" />
    <vehicle id="W_E_79" type="standard_car" route="W_E" depart="204.0" departLane="random" departSpeed="10" />
    <vehicle id="S_N_80" type="standard_car" route="S_N" depart="205.0" departLane="random" departSpeed="10" />
    <vehicle id="S_N_81" type="standard_car" route="S_N" depart="215.0" departLane="random" departSpeed="10" />
    <vehicle id="S_W_82" type="standard_car" route="S_W" depart="215.0" departLane="random" departSpeed="10" />
    <vehicle id="E_W_83" type="standard_car" route="E_W" depart="215.0" departLane="random" departSpeed="10" />
    <vehicle id="N_E_84" type="standard_car" route="N_E" depart="217.0" departLane="random" departSpeed="10" />
    <vehicle id="S_E_85" type="standard_car" route="S_E" depart="217.0" departLane="random" departSpeed="10" />
    <vehicle id="N_E_86" type="standard_car" route="N_E" depart="217.0" departLane="random" departSpeed="10" />
    <vehicle id="W_E_87" type="standard_car" route="W_E" depart="221.0" departLane="random" departSpeed="10" />
    <vehicle id="S_W_88" type="standard_car" route="S_W" depart="222.0" departLane="random" departSpeed="10" />
    <vehicle id="S_W_89" type="standard_car" route="S_W" depart="223.0" departLane="random" departSpeed="10" />
    <vehicle id="W_E_90" type="standard_car" route="W_E" depart="224.0" departLane="random" departSpeed="10" />
    <vehicle id="S_N_91" type="standard_car" route="S_N" depart="235.0" departLane="random" departSpeed="10" />
    <vehicle id="E_W_92" type="standard_car" route="E_W" depart="235.0" departLane="random" departSpeed="10" />
    <vehicle id="S_N_93" type="standard_car" route="S_N" depart="251.0" departLane="random" departSpeed="10" />
    <vehicle id="W_E_94" type="standard_car" route="W_E" depart="262.0" departLane="random" departSpeed="10" />
    <vehicle id="W_E_95" type="standard_car" route="W_E" depart="263.0" departLane="random" departSpeed="10" />
    <vehicle id="W_E_96" type="standard_car" route="W_E" depart="294.0" departLane="random" departSpeed="10" />
    <vehicle id="N_W_97" type="standard_car" route="N_W" depart="373.0" departLane="random" departSpeed="10" />
    <vehicle id="E_S_98" type="standard_car" route="E_S" depart="382.0" departLane="random" departSpeed="10" />
    <vehicle id="S_N_99" type="standard_car" route="S_N" depart="439.0" departLane="random" departSpeed="10" />
</routes>
