<routes>
            <vType accel="1.0" decel="4.5" id="standard_car" length="5.0" minGap="2.5" maxSpeed="25" sigma="0.5" />

            <route id="W_N" edges="E1 -E3"/>
            <route id="W_E" edges="E1 -E2"/>
            <route id="W_S" edges="E1 -E4"/>
            <route id="N_W" edges="E3 -E1"/>
            <route id="N_E" edges="E3 -E2"/>
            <route id="N_S" edges="E3 -E4"/>
            <route id="E_W" edges="E2 -E1"/>
            <route id="E_N" edges="E2 -E3"/>
            <route id="E_S" edges="E2 -E4"/>
            <route id="S_W" edges="E4 -E1"/>
            <route id="S_N" edges="E4 -E3"/>
            <route id="S_E" edges="E4 -E2"/>
    <vehicle id="N_E_0" type="standard_car" route="N_E" depart="6.0" departLane="random" departSpeed="10" />
    <vehicle id="E_W_1" type="standard_car" route="E_W" depart="30.0" departLane="random" departSpeed="10" />
    <vehicle id="W_E_2" type="standard_car" route="W_E" depart="31.0" departLane="random" departSpeed="10" />
    <vehicle id="N_W_3" type="standard_car" route="N_W" depart="33.0" departLane="random" departSpeed="10" />
    <vehicle id="E_W_4" type="standard_car" route="E_W" depart="39.0" departLane="random" departSpeed="10" />
    <vehicle id="N_S_5" type="standard_car" route="N_S" depart="40.0" departLane="random" departSpeed="10" />
    <vehicle id="S_N_6" type="standard_car" route="S_N" depart="44.0" departLane="random" departSpeed="10" />
    <vehicle id="N_E_7" type="standard_car" route="N_E" depart="47.0" departLane="random" departSpeed="10" />
    <vehicle id="S_N_8" type="standard_car" route="S_N" depart="47.0" departLane="random" departSpeed="10" />
    <vehicle id="W_S_9" type="standard_car" route="W_S" depart="54.0" departLane="random" departSpeed="10" />
    <vehicle id="E_W_10" type="standard_car" route="E_W" depart="58.0" departLane="random" departSpeed="10" />
    <vehicle id="E_S_11" type="standard_car" route="E_S" depart="58.0" departLane="random" departSpeed="10" />
    <vehicle id="S_N_12" type="standard_car" route="S_N" depart="59.0" departLane="random" departSpeed="10" />
    <vehicle id="E_S_13" type="standard_car" route="E_S" depart="66.0" departLane="random" departSpeed="10" />
    <vehicle id="S_N_14" type="standard_car" route="S_N" depart="66.0" departLane="random" departSpeed="10" />
    <vehicle id="E_W_15" type="standard_car" route="E_W" depart="67.0" departLane="random" departSpeed="10" />
    <vehicle id="W_N_16" type="standard_car" route="W_N" depart="68.0" departLane="random" departSpeed="10" />
    <vehicle id="S_N_17" type="standard_car" route="S_N" depart="75.0" departLane="random" departSpeed="10" />
    <vehicle id="E_W_18" type="standard_car" route="E_W" depart="78.0" departLane="random" departSpeed="10" />
    <vehicle id="N_S_19" type="standard_car" route="N_S" depart="79.0" departLane="random" departSpeed="10" />
    <vehicle id="W_N_20" type="standard_car" route="W_N" depart="81.0" departLane="random" departSpeed="10" />
    <vehicle id="S_N_21" type="standard_car" route="S_N" depart="81.0" departLane="random" departSpeed="10" />
    <vehicle id="E_S_22" type="standard_car" route="E_S" depart="83.0" departLane="random" departSpeed="10" />
    <vehicle id="N_W_23" type="standard_car" route="N_W" depart="85.0" departLane="random" departSpeed="10" />
    <vehicle id="S_N_24" type="standard_car" route="S_N" depart="86.0" departLane="random" departSpeed="10" />
    <vehicle id="N_S_25" type="standard_car" route="N_S" depart="86.0" departLane="random" departSpeed="10" />
    <vehicle id="E_W_26" type="standard_car" route="E_W" depart="86.0" departLane="random" departSpeed="10" />
    <vehicle id="E_W_27" type="standard_car" route="E_W" depart="87.0" departLane="random" departSpeed="10" />
    <vehicle id="E_S_28" type="standard_car" route="E_S" depart="88.0" departLane="random" departSpeed="10" />
    <vehicle id="W_E_29" type="standard_car" route="W_E" depart="91.0" departLane="random" departSpeed="10" />
    <vehicle id="S_N_30" type="standard_car" route="S_N" depart="91.0" departLane="random" departSpeed="10" />
    <vehicle id="E_S_31" type="standard_car" route="E_S" depart="92.0" departLane="random" departSpeed="10" />
    <vehicle id="E_W_32" type="standard_car" route="E_W" depart="93.0" departLane="random" departSpeed="10" />
    <vehicle id="N_S_33" type="standard_car" route="N_S" depart="99.0" departLane="random" departSpeed="10" />
    <vehicle id="E_W_34" type="standard_car" route="E_W" depart="101.0" departLane="random" departSpeed="10" />
    <vehicle id="W_E_35" type="standard_car" route="W_E" depart="102.0" departLane="random" departSpeed="10" />
    <vehicle id="S_E_36" type="standard_car" route="S_E" depart="104.0" departLane="random" departSpeed="10" />
    <vehicle id="S_N_37" type="standard_car" route="S_N" depart="106.0" departLane="random" departSpeed="10" />
    <vehicle id="E_W_38" type="standard_car" route="E_W" depart="110.0" departLane="random" departSpeed="10" />
    <vehicle id="N_S_39" type="standard_car" route="N_S" depart="111.0" departLane="random" departSpeed="10" />
    <vehicle id="W_E_40" type="standard_car" route="W_E" depart="111.0" departLane="random" departSpeed="10" />
    <vehicle id="E_N_41" type="standard_car" route="E_N" depart="111.0" departLane="random" departSpeed="10" />
    <vehicle id="N_S_42" type="standard_car" route="N_S" depart="113.0" departLane="random" departSpeed="10" />
    <vehicle id="S_N_43" type="standard_car" route="S_N" depart="114.0" departLane="random" departSpeed="10" />
    <vehicle id="W_E_44" type="standard_car" route="W_E" depart="115.0" departLane="random" departSpeed="10" />
    <vehicle id="E_W_45" type="standard_car" route="E_W" depart="117.0" departLane="random" departSpeed="10" />
    <vehicle id="S_N_46" type="standard_car" route="S_N" depart="117.0" departLane="random" departSpeed="10" />
    <vehicle id="W_E_47" type="standard_car" route="W_E" depart="118.0" departLane="random" departSpeed="10" />
    <vehicle id="W_E_48" type="standard_car" route="W_E" depart="120.0" departLane="random" departSpeed="10" />
    <vehicle id="W_E_49" type="standard_car" route="W_E" depart="121.0" departLane="random" departSpeed="10" />
    <vehicle id="W_E_50" type="standard_car" route="W_E" depart="123.0" departLane="random" departSpeed="10" />
    <vehicle id="N_S_51" type="standard_car" route="N_S" depart="124.0" departLane="random" departSpeed="10" />
    <vehicle id="N_S_52" type="standard_car" route="N_S" depart="128.0" departLane="random" departSpeed="10" />
    <vehicle id="E_W_53" type="standard_car" route="E_W" depart="131.0" departLane="random" departSpeed="10" />
    <vehicle id="W_N_54" type="standard_car" route="W_N" depart="136.0" departLane="random" departSpeed="10" />
    <vehicle id="W_E_55" type="standard_car" route="W_E" depart="136.0" departLane="random" departSpeed="10" />
    <vehicle id="W_N_56" type="standard_car" route="W_N" depart="137.0" departLane="random" departSpeed="10" />
    <vehicle id="N_W_57" type="standard_car" route="N_W" depart="138.0" departLane="random" departSpeed="10" />
    <vehicle id="S_N_58" type="standard_car" route="S_N" depart="145.0" departLane="random" departSpeed="10" />
    <vehicle id="S_N_59" type="standard_car" route="S_N" depart="149.0" departLane="random" departSpeed="10" />
    <vehicle id="N_W_60" type="standard_car" route="N_W" depart="150.0" departLane="random" departSpeed="10" />
    <vehicle id="S_N_61" type="standard_car" route="S_N" depart="150.0" departLane="random" departSpeed="10" />
    <vehicle id="W_E_62" type="standard_car" route="W_E" depart="152.0" departLane="random" departSpeed="10" />
    <vehicle id="N_S_63" type="standard_car" route="N_S" depart="153.0" departLane="random" departSpeed="10" />
    <vehicle id="W_E_64" type="standard_car" route="W_E" depart="153.0" departLane="random" departSpeed="10" />
    <vehicle id="S_N_65" type="standard_car" route="S_N" depart="156.0" departLane="random" departSpeed="10" />
    <vehicle id="S_N_66" type="standard_car" route="S_N" depart="158.0" departLane="random" departSpeed="10" />
    <vehicle id="W_E_67" type="standard_car" route="W_E" depart="162.0" departLane="random" departSpeed="10" />
    <vehicle id="S_N_68" type="standard_car" route="S_N" depart="165.0" departLane="random" departSpeed="10" />
    <vehicle id="E_W_69" type="standard_car" route="E_W" depart="167.0" departLane="random" departSpeed="10" />
    <vehicle id="W_E_70" type="standard_car" route="W_E" depart="167.0" departLane="random" departSpeed="10" />
    <vehicle id="E_N_71" type="standard_car" route="E_N" depart="168.0" departLane="random" departSpeed="10" />
    <vehicle id="S_W_72" type="standard_car" route="S_W" depart="172.0" departLane="random" departSpeed="10" />
    <vehicle id="W_N_73" type="standard_car" route="W_N" depart="184.0" departLane="random" departSpeed="10" />
    <vehicle id="E_W_74" type="standard_car" route="E_W" depart="186.0" departLane="random" departSpeed="10" />
    <vehicle id="S_N_75" type="standard_car" route="S_N" depart="187.0" departLane="random" departSpeed="10" />
    <vehicle id="S_N_76" type="standard_car" route="S_N" depart="190.0" departLane="random" departSpeed="10" />
    <vehicle id="N_E_77" type="standard_car" route="N_E" depart="195.0" departLane="random" departSpeed="10" />
    <vehicle id="W_N_78" type="standard_car" route="W_N" depart="200.0" departLane="random" departSpeed="10" />
    <vehicle id="S_E_79" type="standard_car" route="S_E" depart="202.0" departLane="random" departSpeed="10" />
    <vehicle id="S_N_80" type="standard_car" route="S_N" depart="208.0" departLane="random" departSpeed="10" />
    <vehicle id="S_N_81" type="standard_car" route="S_N" depart="214.0" departLane="random" departSpeed="10" />
    <vehicle id="E_W_82" type="standard_car" route="E_W" depart="215.0" departLane="random" departSpeed="10" />
    <vehicle id="N_S_83" type="standard_car" route="N_S" depart="220.0" departLane="random" departSpeed="10" />
    <vehicle id="E_W_84" type="standard_car" route="E_W" depart="222.0" departLane="random" departSpeed="10" />
    <vehicle id="S_N_85" type="standard_car" route="S_N" depart="225.0" departLane="random" departSpeed="10" />
    <vehicle id="W_N_86" type="standard_car" route="W_N" depart="225.0" departLane="random" departSpeed="10" />
    <vehicle id="W_E_87" type="standard_car" route="W_E" depart="226.0" departLane="random" departSpeed="10" />
    <vehicle id="N_S_88" type="standard_car" route="N_S" depart="238.0" departLane="random" departSpeed="10" />
    <vehicle id="S_N_89" type="standard_car" route="S_N" depart="254.0" departLane="random" departSpeed="10" />
    <vehicle id="N_S_90" type="standard_car" route="N_S" depart="255.0" departLane="random" departSpeed="10" />
    <vehicle id="E_W_91" type="standard_car" route="E_W" depart="257.0" departLane="random" departSpeed="10" />
    <vehicle id="N_S_92" type="standard_car" route="N_S" depart="269.0" departLane="random" departSpeed="10" />
    <vehicle id="E_W_93" type="standard_car" route="E_W" depart="277.0" departLane="random" departSpeed="10" />
    <vehicle id="E_W_94" type="standard_car" route="E_W" depart="284.0" departLane="random" departSpeed="10" />
    <vehicle id="W_E_95" type="standard_car" route="W_E" depart="287.0" departLane="random" departSpeed="10" />
    <vehicle id="N_E_96" type="standard_car" route="N_E" depart="305.0" departLane="random" departSpeed="10" />
    <vehicle id="W_E_97" type="standard_car" route="W_E" depart="311.0" departLane="random" departSpeed="10" />
    <vehicle id="N_E_98" type="standard_car" route="N_E" depart="322.0" departLane="random" departSpeed="10" />
    <vehicle id="E_W_99" type="standard_car" route="E_W" depart="343.0" departLane="random" departSpeed="10" />
</routes>
