<routes>
            <vType accel="1.0" decel="4.5" id="standard_car" length="5.0" minGap="2.5" maxSpeed="25" sigma="0.5" />

            <route id="W_N" edges="E1 -E3"/>
            <route id="W_E" edges="E1 -E2"/>
            <route id="W_S" edges="E1 -E4"/>
            <route id="N_W" edges="E3 -E1"/>
            <route id="N_E" edges="E3 -E2"/>
            <route id="N_S" edges="E3 -E4"/>
            <route id="E_W" edges="E2 -E1"/>
            <route id="E_N" edges="E2 -E3"/>
            <route id="E_S" edges="E2 -E4"/>
            <route id="S_W" edges="E4 -E1"/>
            <route id="S_N" edges="E4 -E3"/>
            <route id="S_E" edges="E4 -E2"/>
    <vehicle id="W_E_0" type="standard_car" route="W_E" depart="3.0" departLane="random" departSpeed="10" />
    <vehicle id="E_W_1" type="standard_car" route="E_W" depart="14.0" departLane="random" departSpeed="10" />
    <vehicle id="E_W_2" type="standard_car" route="E_W" depart="36.0" departLane="random" departSpeed="10" />
    <vehicle id="N_W_3" type="standard_car" route="N_W" depart="37.0" departLane="random" departSpeed="10" />
    <vehicle id="E_W_4" type="standard_car" route="E_W" depart="44.0" departLane="random" departSpeed="10" />
    <vehicle id="E_S_5" type="standard_car" route="E_S" depart="53.0" departLane="random" departSpeed="10" />
    <vehicle id="W_S_6" type="standard_car" route="W_S" depart="60.0" departLane="random" departSpeed="10" />
    <vehicle id="E_W_7" type="standard_car" route="E_W" depart="62.0" departLane="random" departSpeed="10" />
    <vehicle id="E_N_8" type="standard_car" route="E_N" depart="80.0" departLane="random" departSpeed="10" />
    <vehicle id="N_S_9" type="standard_car" route="N_S" depart="83.0" departLane="random" departSpeed="10" />
    <vehicle id="N_E_10" type="standard_car" route="N_E" depart="86.0" departLane="random" departSpeed="10" />
    <vehicle id="S_N_11" type="standard_car" route="S_N" depart="88.0" departLane="random" departSpeed="10" />
    <vehicle id="S_N_12" type="standard_car" route="S_N" depart="88.0" departLane="random" departSpeed="10" />
    <vehicle id="W_E_13" type="standard_car" route="W_E" depart="93.0" departLane="random" departSpeed="10" />
    <vehicle id="E_W_14" type="standard_car" route="E_W" depart="100.0" departLane="random" departSpeed="10" />
    <vehicle id="S_N_15" type="standard_car" route="S_N" depart="103.0" departLane="random" departSpeed="10" />
    <vehicle id="S_E_16" type="standard_car" route="S_E" depart="103.0" departLane="random" departSpeed="10" />
    <vehicle id="N_S_17" type="standard_car" route="N_S" depart="104.0" departLane="random" departSpeed="10" />
    <vehicle id="W_N_18" type="standard_car" route="W_N" depart="106.0" departLane="random" departSpeed="10" />
    <vehicle id="E_W_19" type="standard_car" route="E_W" depart="106.0" departLane="random" departSpeed="10" />
    <vehicle id="N_S_20" type="standard_car" route="N_S" depart="113.0" departLane="random" departSpeed="10" />
    <vehicle id="W_E_21" type="standard_car" route="W_E" depart="115.0" departLane="random" departSpeed="10" />
    <vehicle id="S_N_22" type="standard_car" route="S_N" depart="121.0" departLane="random" departSpeed="10" />
    <vehicle id="E_W_23" type="standard_car" route="E_W" depart="125.0" departLane="random" departSpeed="10" />
    <vehicle id="E_N_24" type="standard_car" route="E_N" depart="128.0" departLane="random" departSpeed="10" />
    <vehicle id="N_S_25" type="standard_car" route="N_S" depart="130.0" departLane="random" departSpeed="10" />
    <vehicle id="W_E_26" type="standard_car" route="W_E" depart="139.0" departLane="random" departSpeed="10" />
    <vehicle id="S_N_27" type="standard_car" route="S_N" depart="148.0" departLane="random" departSpeed="10" />
    <vehicle id="N_S_28" type="standard_car" route="N_S" depart="150.0" departLane="random" departSpeed="10" />
    <vehicle id="N_E_29" type="standard_car" route="N_E" depart="153.0" departLane="random" departSpeed="10" />
    <vehicle id="W_E_30" type="standard_car" route="W_E" depart="155.0" departLane="random" departSpeed="10" />
    <vehicle id="S_N_31" type="standard_car" route="S_N" depart="157.0" departLane="random" departSpeed="10" />
    <vehicle id="W_E_32" type="standard_car" route="W_E" depart="160.0" departLane="random" departSpeed="10" />
    <vehicle id="E_W_33" type="standard_car" route="E_W" depart="164.0" departLane="random" departSpeed="10" />
    <vehicle id="E_N_34" type="standard_car" route="E_N" depart="164.0" departLane="random" departSpeed="10" />
    <vehicle id="S_N_35" type="standard_car" route="S_N" depart="174.0" departLane="random" departSpeed="10" />
    <vehicle id="S_N_36" type="standard_car" route="S_N" depart="174.0" departLane="random" departSpeed="10" />
    <vehicle id="S_N_37" type="standard_car" route="S_N" depart="175.0" departLane="random" departSpeed="10" />
    <vehicle id="S_N_38" type="standard_car" route="S_N" depart="190.0" departLane="random" departSpeed="10" />
    <vehicle id="N_S_39" type="standard_car" route="N_S" depart="190.0" departLane="random" departSpeed="10" />
    <vehicle id="N_S_40" type="standard_car" route="N_S" depart="193.0" departLane="random" departSpeed="10" />
    <vehicle id="W_E_41" type="standard_car" route="W_E" depart="195.0" departLane="random" departSpeed="10" />
    <vehicle id="W_N_42" type="standard_car" route="W_N" depart="195.0" departLane="random" departSpeed="10" />
    <vehicle id="S_W_43" type="standard_car" route="S_W" depart="196.0" departLane="random" departSpeed="10" />
    <vehicle id="S_N_44" type="standard_car" route="S_N" depart="196.0" departLane="random" departSpeed="10" />
    <vehicle id="S_E_45" type="standard_car" route="S_E" depart="197.0" departLane="random" departSpeed="10" />
    <vehicle id="W_E_46" type="standard_car" route="W_E" depart="197.0" departLane="random" departSpeed="10" />
    <vehicle id="N_S_47" type="standard_car" route="N_S" depart="199.0" departLane="random" departSpeed="10" />
    <vehicle id="N_S_48" type="standard_car" route="N_S" depart="206.0" departLane="random" departSpeed="10" />
    <vehicle id="W_E_49" type="standard_car" route="W_E" depart="206.0" departLane="random" departSpeed="10" />
    <vehicle id="N_S_50" type="standard_car" route="N_S" depart="219.0" departLane="random" departSpeed="10" />
    <vehicle id="S_N_51" type="standard_car" route="S_N" depart="227.0" departLane="random" departSpeed="10" />
    <vehicle id="N_S_52" type="standard_car" route="N_S" depart="233.0" departLane="random" departSpeed="10" />
    <vehicle id="N_S_53" type="standard_car" route="N_S" depart="234.0" departLane="random" departSpeed="10" />
    <vehicle id="E_W_54" type="standard_car" route="E_W" depart="235.0" departLane="random" departSpeed="10" />
    <vehicle id="W_E_55" type="standard_car" route="W_E" depart="241.0" departLane="random" departSpeed="10" />
    <vehicle id="W_E_56" type="standard_car" route="W_E" depart="246.0" departLane="random" departSpeed="10" />
    <vehicle id="W_E_57" type="standard_car" route="W_E" depart="246.0" departLane="random" departSpeed="10" />
    <vehicle id="W_E_58" type="standard_car" route="W_E" depart="248.0" departLane="random" departSpeed="10" />
    <vehicle id="W_N_59" type="standard_car" route="W_N" depart="251.0" departLane="random" departSpeed="10" />
    <vehicle id="S_N_60" type="standard_car" route="S_N" depart="252.0" departLane="random" departSpeed="10" />
    <vehicle id="W_E_61" type="standard_car" route="W_E" depart="261.0" departLane="random" departSpeed="10" />
    <vehicle id="S_E_62" type="standard_car" route="S_E" depart="263.0" departLane="random" departSpeed="10" />
    <vehicle id="W_E_63" type="standard_car" route="W_E" depart="264.0" departLane="random" departSpeed="10" />
    <vehicle id="W_E_64" type="standard_car" route="W_E" depart="278.0" departLane="random" departSpeed="10" />
    <vehicle id="N_S_65" type="standard_car" route="N_S" depart="278.0" departLane="random" departSpeed="10" />
    <vehicle id="E_N_66" type="standard_car" route="E_N" depart="281.0" departLane="random" departSpeed="10" />
    <vehicle id="S_E_67" type="standard_car" route="S_E" depart="284.0" departLane="random" departSpeed="10" />
    <vehicle id="E_N_68" type="standard_car" route="E_N" depart="287.0" departLane="random" departSpeed="10" />
    <vehicle id="E_S_69" type="standard_car" route="E_S" depart="287.0" departLane="random" departSpeed="10" />
    <vehicle id="E_W_70" type="standard_car" route="E_W" depart="289.0" departLane="random" departSpeed="10" />
    <vehicle id="N_S_71" type="standard_car" route="N_S" depart="290.0" departLane="random" departSpeed="10" />
    <vehicle id="E_N_72" type="standard_car" route="E_N" depart="290.0" departLane="random" departSpeed="10" />
    <vehicle id="S_N_73" type="standard_car" route="S_N" depart="293.0" departLane="random" departSpeed="10" />
    <vehicle id="S_E_74" type="standard_car" route="S_E" depart="301.0" departLane="random" departSpeed="10" />
    <vehicle id="E_W_75" type="standard_car" route="E_W" depart="303.0" departLane="random" departSpeed="10" />
    <vehicle id="N_S_76" type="standard_car" route="N_S" depart="313.0" departLane="random" departSpeed="10" />
    <vehicle id="W_E_77" type="standard_car" route="W_E" depart="314.0" departLane="random" departSpeed="10" />
    <vehicle id="N_W_78" type="standard_car" route="N_W" depart="314.0" departLane="random" departSpeed="10" />
    <vehicle id="N_S_79" type="standard_car" route="N_S" depart="314.0" departLane="random" departSpeed="10" />
    <vehicle id="E_W_80" type="standard_car" route="E_W" depart="333.0" departLane="random" departSpeed="10" />
    <vehicle id="S_N_81" type="standard_car" route="S_N" depart="339.0" departLane="random" departSpeed="10" />
    <vehicle id="N_W_82" type="standard_car" route="N_W" depart="342.0" departLane="random" departSpeed="10" />
    <vehicle id="W_E_83" type="standard_car" route="W_E" depart="358.0" departLane="random" departSpeed="10" />
    <vehicle id="N_S_84" type="standard_car" route="N_S" depart="386.0" departLane="random" departSpeed="10" />
    <vehicle id="N_S_85" type="standard_car" route="N_S" depart="387.0" departLane="random" departSpeed="10" />
    <vehicle id="N_E_86" type="standard_car" route="N_E" depart="387.0" departLane="random" departSpeed="10" />
    <vehicle id="S_N_87" type="standard_car" route="S_N" depart="391.0" departLane="random" departSpeed="10" />
    <vehicle id="S_E_88" type="standard_car" route="S_E" depart="400.0" departLane="random" departSpeed="10" />
    <vehicle id="N_S_89" type="standard_car" route="N_S" depart="401.0" departLane="random" departSpeed="10" />
    <vehicle id="S_N_90" type="standard_car" route="S_N" depart="408.0" departLane="random" departSpeed="10" />
    <vehicle id="N_W_91" type="standard_car" route="N_W" depart="408.0" departLane="random" departSpeed="10" />
    <vehicle id="N_S_92" type="standard_car" route="N_S" depart="412.0" departLane="random" departSpeed="10" />
    <vehicle id="W_S_93" type="standard_car" route="W_S" depart="432.0" departLane="random" departSpeed="10" />
    <vehicle id="W_N_94" type="standard_car" route="W_N" depart="454.0" departLane="random" departSpeed="10" />
    <vehicle id="E_W_95" type="standard_car" route="E_W" depart="461.0" departLane="random" departSpeed="10" />
    <vehicle id="N_W_96" type="standard_car" route="N_W" depart="475.0" departLane="random" departSpeed="10" />
    <vehicle id="E_W_97" type="standard_car" route="E_W" depart="488.0" departLane="random" departSpeed="10" />
    <vehicle id="W_E_98" type="standard_car" route="W_E" depart="495.0" departLane="random" departSpeed="10" />
    <vehicle id="N_S_99" type="standard_car" route="N_S" depart="566.0" departLane="random" departSpeed="10" />
</routes>
