<routes>
    <vType accel="1.0" decel="4.5" id="standard_car" length="5.0" minGap="2.5" maxSpeed="25" sigma="0.5" />

    <route id="W_N" edges="E1 -E3"/>
    <route id="W_E" edges="E1 -E2"/>
    <route id="W_S" edges="E1 -E4"/>
    <route id="N_W" edges="E3 -E1"/>
    <route id="N_E" edges="E3 -E2"/>
    <route id="N_S" edges="E3 -E4"/>
    <route id="E_W" edges="E2 -E1"/>
    <route id="E_N" edges="E2 -E3"/>
    <route id="E_S" edges="E2 -E4"/>
    <route id="S_W" edges="E4 -E1"/>
    <route id="S_N" edges="E4 -E3"/>
    <route id="S_E" edges="E4 -E2"/>
    <vehicle id="W_E_0" type="standard_car" route="W_E" depart="33.0" departLane="random" departSpeed="10" />
    <vehicle id="N_S_1" type="standard_car" route="N_S" depart="34.0" departLane="random" departSpeed="10" />
    <vehicle id="S_N_2" type="standard_car" route="S_N" depart="60.0" departLane="random" departSpeed="10" />
    <vehicle id="W_E_3" type="standard_car" route="W_E" depart="65.0" departLane="random" departSpeed="10" />
    <vehicle id="W_E_4" type="standard_car" route="W_E" depart="72.0" departLane="random" departSpeed="10" />
    <vehicle id="W_E_5" type="standard_car" route="W_E" depart="85.0" departLane="random" departSpeed="10" />
    <vehicle id="S_N_6" type="standard_car" route="S_N" depart="89.0" departLane="random" departSpeed="10" />
    <vehicle id="E_W_7" type="standard_car" route="E_W" depart="94.0" departLane="random" departSpeed="10" />
    <vehicle id="E_W_8" type="standard_car" route="E_W" depart="117.0" departLane="random" departSpeed="10" />
    <vehicle id="N_E_9" type="standard_car" route="N_E" depart="133.0" departLane="random" departSpeed="10" />
    <vehicle id="E_W_10" type="standard_car" route="E_W" depart="148.0" departLane="random" departSpeed="10" />
    <vehicle id="E_W_11" type="standard_car" route="E_W" depart="160.0" departLane="random" departSpeed="10" />
    <vehicle id="N_W_12" type="standard_car" route="N_W" depart="161.0" departLane="random" departSpeed="10" />
    <vehicle id="N_E_13" type="standard_car" route="N_E" depart="167.0" departLane="random" departSpeed="10" />
    <vehicle id="E_W_14" type="standard_car" route="E_W" depart="176.0" departLane="random" departSpeed="10" />
    <vehicle id="E_W_15" type="standard_car" route="E_W" depart="178.0" departLane="random" departSpeed="10" />
    <vehicle id="W_E_16" type="standard_car" route="W_E" depart="182.0" departLane="random" departSpeed="10" />
    <vehicle id="S_N_17" type="standard_car" route="S_N" depart="182.0" departLane="random" departSpeed="10" />
    <vehicle id="S_N_18" type="standard_car" route="S_N" depart="187.0" departLane="random" departSpeed="10" />
    <vehicle id="E_W_19" type="standard_car" route="E_W" depart="189.0" departLane="random" departSpeed="10" />
    <vehicle id="S_N_20" type="standard_car" route="S_N" depart="206.0" departLane="random" departSpeed="10" />
    <vehicle id="N_E_21" type="standard_car" route="N_E" depart="208.0" departLane="random" departSpeed="10" />
    <vehicle id="S_N_22" type="standard_car" route="S_N" depart="213.0" departLane="random" departSpeed="10" />
    <vehicle id="N_W_23" type="standard_car" route="N_W" depart="214.0" departLane="random" departSpeed="10" />
    <vehicle id="E_W_24" type="standard_car" route="E_W" depart="220.0" departLane="random" departSpeed="10" />
    <vehicle id="E_N_25" type="standard_car" route="E_N" depart="220.0" departLane="random" departSpeed="10" />
    <vehicle id="N_E_26" type="standard_car" route="N_E" depart="231.0" departLane="random" departSpeed="10" />
    <vehicle id="N_S_27" type="standard_car" route="N_S" depart="234.0" departLane="random" departSpeed="10" />
    <vehicle id="W_E_28" type="standard_car" route="W_E" depart="235.0" departLane="random" departSpeed="10" />
    <vehicle id="S_W_29" type="standard_car" route="S_W" depart="235.0" departLane="random" departSpeed="10" />
    <vehicle id="N_S_30" type="standard_car" route="N_S" depart="243.0" departLane="random" departSpeed="10" />
    <vehicle id="W_E_31" type="standard_car" route="W_E" depart="245.0" departLane="random" departSpeed="10" />
    <vehicle id="S_W_32" type="standard_car" route="S_W" depart="252.0" departLane="random" departSpeed="10" />
    <vehicle id="N_S_33" type="standard_car" route="N_S" depart="253.0" departLane="random" departSpeed="10" />
    <vehicle id="N_S_34" type="standard_car" route="N_S" depart="257.0" departLane="random" departSpeed="10" />
    <vehicle id="W_E_35" type="standard_car" route="W_E" depart="262.0" departLane="random" departSpeed="10" />
    <vehicle id="S_N_36" type="standard_car" route="S_N" depart="269.0" departLane="random" departSpeed="10" />
    <vehicle id="N_S_37" type="standard_car" route="N_S" depart="293.0" departLane="random" departSpeed="10" />
    <vehicle id="W_E_38" type="standard_car" route="W_E" depart="295.0" departLane="random" departSpeed="10" />
    <vehicle id="E_S_39" type="standard_car" route="E_S" depart="296.0" departLane="random" departSpeed="10" />
    <vehicle id="W_E_40" type="standard_car" route="W_E" depart="301.0" departLane="random" departSpeed="10" />
    <vehicle id="N_E_41" type="standard_car" route="N_E" depart="304.0" departLane="random" departSpeed="10" />
    <vehicle id="E_W_42" type="standard_car" route="E_W" depart="321.0" departLane="random" departSpeed="10" />
    <vehicle id="S_N_43" type="standard_car" route="S_N" depart="343.0" departLane="random" departSpeed="10" />
    <vehicle id="W_N_44" type="standard_car" route="W_N" depart="358.0" departLane="random" departSpeed="10" />
    <vehicle id="N_S_45" type="standard_car" route="N_S" depart="387.0" departLane="random" departSpeed="10" />
    <vehicle id="W_E_46" type="standard_car" route="W_E" depart="407.0" departLane="random" departSpeed="10" />
    <vehicle id="E_W_47" type="standard_car" route="E_W" depart="408.0" departLane="random" departSpeed="10" />
    <vehicle id="W_S_48" type="standard_car" route="W_S" depart="437.0" departLane="random" departSpeed="10" />
    <vehicle id="W_E_49" type="standard_car" route="W_E" depart="471.0" departLane="random" departSpeed="10" />
</routes>
