<routes>
            <vType accel="1.0" decel="4.5" id="standard_car" length="5.0" minGap="2.5" maxSpeed="25" sigma="0.5" />

            <route id="r_0_2_0" edges="N1_L_N1 N1_N2 N2_N2_R"/>
            <route id="r_0_2_1" edges="N2_D_N2 N2_N3 N3_N3_U"/>
            <route id="r_0_2_2" edges="N3_U_N3 N3_N2 N2_N2_D"/>
            <route id="r_0_2_3" edges="N4_U_N4 N4_N1 N1_N1_D"/>
            <route id="r_1_0_4" edges="N1_D_N1 N1_N1_L"/>
            <route id="r_1_0_5" edges="N1_L_N1 N1_N1_D"/>
            <route id="r_1_0_6" edges="N2_D_N2 N2_N2_R"/>
            <route id="r_1_0_7" edges="N2_R_N2 N2_N2_D"/>
            <route id="r_1_0_8" edges="N3_R_N3 N3_N3_U"/>
            <route id="r_1_0_9" edges="N3_U_N3 N3_N3_R"/>
            <route id="r_1_0_10" edges="N4_L_N4 N4_N4_U"/>
            <route id="r_1_0_11" edges="N4_U_N4 N4_N4_L"/>
            <route id="r_1_1_12" edges="N1_D_N1 N1_N2 N2_N2_R"/>
            <route id="r_1_1_13" edges="N1_L_N1 N1_N2 N2_N2_D"/>
            <route id="r_1_1_14" edges="N2_D_N2 N2_N3 N3_N3_R"/>
            <route id="r_1_1_15" edges="N2_R_N2 N2_N3 N3_N3_U"/>
            <route id="r_1_1_16" edges="N3_R_N3 N3_N2 N2_N2_D"/>
            <route id="r_1_1_17" edges="N3_U_N3 N3_N2 N2_N2_R"/>
            <route id="r_1_1_18" edges="N4_L_N4 N4_N1 N1_N1_D"/>
            <route id="r_1_1_19" edges="N4_U_N4 N4_N1 N1_N1_L"/>
            <route id="r_1_2_20" edges="N1_L_N1 N1_N2 N2_N3 N3_N3_U"/>
            <route id="r_1_2_21" edges="N2_D_N2 N2_N3 N3_N4 N4_N4_L"/>
            <route id="r_1_2_22" edges="N3_U_N3 N3_N2 N2_N1 N1_N1_L"/>
            <route id="r_1_2_23" edges="N4_U_N4 N4_N1 N1_N2 N2_N2_R"/>
            <route id="r_2_0_24" edges="N1_D_N1 N1_N2 N2_N2_D"/>
            <route id="r_2_0_25" edges="N2_R_N2 N2_N3 N3_N3_R"/>
            <route id="r_2_0_26" edges="N3_R_N3 N3_N2 N2_N2_R"/>
            <route id="r_2_0_27" edges="N4_L_N4 N4_N1 N1_N1_L"/>
            <route id="r_2_1_28" edges="N1_D_N1 N1_N2 N2_N3 N3_N3_U"/>
            <route id="r_2_1_29" edges="N1_L_N1 N1_N2 N2_N3 N3_N3_R"/>
            <route id="r_2_1_30" edges="N2_D_N2 N2_N3 N3_N4 N4_N4_U"/>
            <route id="r_2_1_31" edges="N2_R_N2 N2_N3 N3_N4 N4_N4_L"/>
            <route id="r_2_1_32" edges="N3_R_N3 N3_N2 N2_N1 N1_N1_L"/>
            <route id="r_2_1_33" edges="N3_U_N3 N3_N2 N2_N1 N1_N1_D"/>
            <route id="r_2_1_34" edges="N4_L_N4 N4_N1 N1_N2 N2_N2_R"/>
            <route id="r_2_1_35" edges="N4_U_N4 N4_N1 N1_N2 N2_N2_D"/>
            <route id="r_2_2_36" edges="N1_L_N1 N1_N2 N2_N3 N3_N4 N4_N4_L"/>
            <route id="r_2_2_37" edges="N2_D_N2 N2_N3 N3_N4 N4_N1 N1_N1_D"/>
            <route id="r_2_2_38" edges="N3_U_N3 N3_N2 N2_N1 N1_N4 N4_N4_U"/>
            <route id="r_2_2_39" edges="N4_U_N4 N4_N1 N1_N2 N2_N3 N3_N3_U"/>
            <route id="r_3_0_40" edges="N1_D_N1 N1_N2 N2_N3 N3_N3_R"/>
            <route id="r_3_0_41" edges="N2_R_N2 N2_N3 N3_N4 N4_N4_U"/>
            <route id="r_3_0_42" edges="N3_R_N3 N3_N2 N2_N1 N1_N1_D"/>
            <route id="r_3_0_43" edges="N4_L_N4 N4_N1 N1_N2 N2_N2_D"/>
            <route id="r_3_1_44" edges="N1_D_N1 N1_N2 N2_N3 N3_N4 N4_N4_L"/>
            <route id="r_3_1_45" edges="N1_L_N1 N1_N2 N2_N3 N3_N4 N4_N4_U"/>
            <route id="r_3_1_46" edges="N2_D_N2 N2_N3 N3_N4 N4_N1 N1_N1_L"/>
            <route id="r_3_1_47" edges="N2_R_N2 N2_N3 N3_N4 N4_N1 N1_N1_D"/>
            <route id="r_3_1_48" edges="N3_R_N3 N3_N2 N2_N1 N1_N4 N4_N4_U"/>
            <route id="r_3_1_49" edges="N3_U_N3 N3_N2 N2_N1 N1_N4 N4_N4_L"/>
            <route id="r_3_1_50" edges="N4_L_N4 N4_N1 N1_N2 N2_N3 N3_N3_U"/>
            <route id="r_3_1_51" edges="N4_U_N4 N4_N1 N1_N2 N2_N3 N3_N3_R"/>
            <route id="r_4_0_52" edges="N1_D_N1 N1_N2 N2_N3 N3_N4 N4_N4_U"/>
            <route id="r_4_0_53" edges="N2_R_N2 N2_N3 N3_N4 N4_N1 N1_N1_L"/>
            <route id="r_4_0_54" edges="N3_R_N3 N3_N2 N2_N1 N1_N4 N4_N4_L"/>
            <route id="r_4_0_55" edges="N4_L_N4 N4_N1 N1_N2 N2_N3 N3_N3_R"/>
    <vehicle id="0" type="standard_car" route="r_2_1_30" depart="65.0" departLane="random" departSpeed="10" />
    <vehicle id="1" type="standard_car" route="r_2_0_26" depart="66.0" departLane="random" departSpeed="10" />
    <vehicle id="2" type="standard_car" route="r_0_2_2" depart="95.0" departLane="random" departSpeed="10" />
    <vehicle id="3" type="standard_car" route="r_3_1_47" depart="101.0" departLane="random" departSpeed="10" />
    <vehicle id="4" type="standard_car" route="r_1_0_4" depart="143.0" departLane="random" departSpeed="10" />
    <vehicle id="5" type="standard_car" route="r_1_0_5" depart="154.0" departLane="random" departSpeed="10" />
    <vehicle id="6" type="standard_car" route="r_1_1_18" depart="158.0" departLane="random" departSpeed="10" />
    <vehicle id="7" type="standard_car" route="r_2_2_37" depart="165.0" departLane="random" departSpeed="10" />
    <vehicle id="8" type="standard_car" route="r_1_0_6" depart="175.0" departLane="random" departSpeed="10" />
    <vehicle id="9" type="standard_car" route="r_3_1_51" depart="179.0" departLane="random" departSpeed="10" />
    <vehicle id="10" type="standard_car" route="r_0_2_3" depart="210.0" departLane="random" departSpeed="10" />
    <vehicle id="11" type="standard_car" route="r_3_1_49" depart="226.0" departLane="random" departSpeed="10" />
    <vehicle id="12" type="standard_car" route="r_2_1_31" depart="226.0" departLane="random" departSpeed="10" />
    <vehicle id="13" type="standard_car" route="r_2_1_29" depart="227.0" departLane="random" departSpeed="10" />
    <vehicle id="14" type="standard_car" route="r_3_0_42" depart="230.0" departLane="random" departSpeed="10" />
    <vehicle id="15" type="standard_car" route="r_1_0_4" depart="236.0" departLane="random" departSpeed="10" />
    <vehicle id="16" type="standard_car" route="r_3_0_41" depart="241.0" departLane="random" departSpeed="10" />
    <vehicle id="17" type="standard_car" route="r_1_0_4" depart="251.0" departLane="random" departSpeed="10" />
    <vehicle id="18" type="standard_car" route="r_4_0_54" depart="253.0" departLane="random" departSpeed="10" />
    <vehicle id="19" type="standard_car" route="r_2_1_33" depart="255.0" departLane="random" departSpeed="10" />
    <vehicle id="20" type="standard_car" route="r_1_1_13" depart="264.0" departLane="random" departSpeed="10" />
    <vehicle id="21" type="standard_car" route="r_3_1_44" depart="267.0" departLane="random" departSpeed="10" />
    <vehicle id="22" type="standard_car" route="r_3_0_40" depart="269.0" departLane="random" departSpeed="10" />
    <vehicle id="23" type="standard_car" route="r_1_0_8" depart="279.0" departLane="random" departSpeed="10" />
    <vehicle id="24" type="standard_car" route="r_2_1_30" depart="302.0" departLane="random" departSpeed="10" />
    <vehicle id="25" type="standard_car" route="r_2_1_30" depart="314.0" departLane="random" departSpeed="10" />
    <vehicle id="26" type="standard_car" route="r_2_1_30" depart="315.0" departLane="random" departSpeed="10" />
    <vehicle id="27" type="standard_car" route="r_0_2_0" depart="325.0" departLane="random" departSpeed="10" />
    <vehicle id="28" type="standard_car" route="r_2_1_34" depart="326.0" departLane="random" departSpeed="10" />
    <vehicle id="29" type="standard_car" route="r_1_2_22" depart="327.0" departLane="random" departSpeed="10" />
    <vehicle id="30" type="standard_car" route="r_1_1_19" depart="328.0" departLane="random" departSpeed="10" />
    <vehicle id="31" type="standard_car" route="r_2_1_30" depart="332.0" departLane="random" departSpeed="10" />
    <vehicle id="32" type="standard_car" route="r_2_1_30" depart="334.0" departLane="random" departSpeed="10" />
    <vehicle id="33" type="standard_car" route="r_2_1_29" depart="338.0" departLane="random" departSpeed="10" />
    <vehicle id="34" type="standard_car" route="r_1_0_8" depart="339.0" departLane="random" departSpeed="10" />
    <vehicle id="35" type="standard_car" route="r_2_2_36" depart="343.0" departLane="random" departSpeed="10" />
    <vehicle id="36" type="standard_car" route="r_2_0_27" depart="350.0" departLane="random" departSpeed="10" />
    <vehicle id="37" type="standard_car" route="r_1_0_4" depart="364.0" departLane="random" departSpeed="10" />
    <vehicle id="38" type="standard_car" route="r_1_1_16" depart="367.0" departLane="random" departSpeed="10" />
    <vehicle id="39" type="standard_car" route="r_3_0_42" depart="379.0" departLane="random" departSpeed="10" />
    <vehicle id="40" type="standard_car" route="r_3_1_50" depart="382.0" departLane="random" departSpeed="10" />
    <vehicle id="41" type="standard_car" route="r_3_1_47" depart="384.0" departLane="random" departSpeed="10" />
    <vehicle id="42" type="standard_car" route="r_1_2_21" depart="386.0" departLane="random" departSpeed="10" />
    <vehicle id="43" type="standard_car" route="r_1_0_4" depart="390.0" departLane="random" departSpeed="10" />
    <vehicle id="44" type="standard_car" route="r_3_1_46" depart="390.0" departLane="random" departSpeed="10" />
    <vehicle id="45" type="standard_car" route="r_2_2_39" depart="391.0" departLane="random" departSpeed="10" />
    <vehicle id="46" type="standard_car" route="r_2_2_36" depart="400.0" departLane="random" departSpeed="10" />
    <vehicle id="47" type="standard_car" route="r_2_0_25" depart="401.0" departLane="random" departSpeed="10" />
    <vehicle id="48" type="standard_car" route="r_3_0_43" depart="411.0" departLane="random" departSpeed="10" />
    <vehicle id="49" type="standard_car" route="r_0_2_3" depart="412.0" departLane="random" departSpeed="10" />
    <vehicle id="50" type="standard_car" route="r_3_0_42" depart="414.0" departLane="random" departSpeed="10" />
    <vehicle id="51" type="standard_car" route="r_4_0_55" depart="414.0" departLane="random" departSpeed="10" />
    <vehicle id="52" type="standard_car" route="r_2_1_31" depart="421.0" departLane="random" departSpeed="10" />
    <vehicle id="53" type="standard_car" route="r_2_2_37" depart="423.0" departLane="random" departSpeed="10" />
    <vehicle id="54" type="standard_car" route="r_2_2_38" depart="428.0" departLane="random" departSpeed="10" />
    <vehicle id="55" type="standard_car" route="r_2_1_28" depart="430.0" departLane="random" departSpeed="10" />
    <vehicle id="56" type="standard_car" route="r_2_1_32" depart="432.0" departLane="random" departSpeed="10" />
    <vehicle id="57" type="standard_car" route="r_3_1_51" depart="435.0" departLane="random" departSpeed="10" />
    <vehicle id="58" type="standard_car" route="r_2_1_28" depart="443.0" departLane="random" departSpeed="10" />
    <vehicle id="59" type="standard_car" route="r_3_1_50" depart="470.0" departLane="random" departSpeed="10" />
    <vehicle id="60" type="standard_car" route="r_3_0_40" depart="471.0" departLane="random" departSpeed="10" />
    <vehicle id="61" type="standard_car" route="r_1_2_20" depart="472.0" departLane="random" departSpeed="10" />
    <vehicle id="62" type="standard_car" route="r_1_0_6" depart="476.0" departLane="random" departSpeed="10" />
    <vehicle id="63" type="standard_car" route="r_2_2_37" depart="476.0" departLane="random" departSpeed="10" />
    <vehicle id="64" type="standard_car" route="r_1_2_22" depart="477.0" departLane="random" departSpeed="10" />
    <vehicle id="65" type="standard_car" route="r_2_2_38" depart="482.0" departLane="random" departSpeed="10" />
    <vehicle id="66" type="standard_car" route="r_1_0_11" depart="490.0" departLane="random" departSpeed="10" />
    <vehicle id="67" type="standard_car" route="r_2_2_38" depart="496.0" departLane="random" departSpeed="10" />
    <vehicle id="68" type="standard_car" route="r_1_1_13" depart="508.0" departLane="random" departSpeed="10" />
    <vehicle id="69" type="standard_car" route="r_2_0_25" depart="530.0" departLane="random" departSpeed="10" />
    <vehicle id="70" type="standard_car" route="r_3_0_42" depart="530.0" departLane="random" departSpeed="10" />
    <vehicle id="71" type="standard_car" route="r_1_0_10" depart="537.0" departLane="random" departSpeed="10" />
    <vehicle id="72" type="standard_car" route="r_3_1_45" depart="551.0" departLane="random" departSpeed="10" />
    <vehicle id="73" type="standard_car" route="r_3_1_46" depart="551.0" departLane="random" departSpeed="10" />
    <vehicle id="74" type="standard_car" route="r_0_2_2" depart="568.0" departLane="random" departSpeed="10" />
    <vehicle id="75" type="standard_car" route="r_3_1_46" depart="571.0" departLane="random" departSpeed="10" />
    <vehicle id="76" type="standard_car" route="r_4_0_55" depart="572.0" departLane="random" departSpeed="10" />
    <vehicle id="77" type="standard_car" route="r_1_2_20" depart="581.0" departLane="random" departSpeed="10" />
    <vehicle id="78" type="standard_car" route="r_2_1_32" depart="583.0" departLane="random" departSpeed="10" />
    <vehicle id="79" type="standard_car" route="r_1_2_22" depart="585.0" departLane="random" departSpeed="10" />
    <vehicle id="80" type="standard_car" route="r_3_1_49" depart="586.0" departLane="random" departSpeed="10" />
    <vehicle id="81" type="standard_car" route="r_1_1_13" depart="602.0" departLane="random" departSpeed="10" />
    <vehicle id="82" type="standard_car" route="r_1_2_20" depart="604.0" departLane="random" departSpeed="10" />
    <vehicle id="83" type="standard_car" route="r_2_1_30" depart="606.0" departLane="random" departSpeed="10" />
    <vehicle id="84" type="standard_car" route="r_2_0_27" depart="608.0" departLane="random" departSpeed="10" />
    <vehicle id="85" type="standard_car" route="r_1_1_17" depart="618.0" departLane="random" departSpeed="10" />
    <vehicle id="86" type="standard_car" route="r_3_1_47" depart="629.0" departLane="random" departSpeed="10" />
    <vehicle id="87" type="standard_car" route="r_2_1_32" depart="633.0" departLane="random" departSpeed="10" />
    <vehicle id="88" type="standard_car" route="r_0_2_1" depart="633.0" departLane="random" departSpeed="10" />
    <vehicle id="89" type="standard_car" route="r_1_1_14" depart="634.0" departLane="random" departSpeed="10" />
    <vehicle id="90" type="standard_car" route="r_2_0_24" depart="637.0" departLane="random" departSpeed="10" />
    <vehicle id="91" type="standard_car" route="r_1_0_6" depart="642.0" departLane="random" departSpeed="10" />
    <vehicle id="92" type="standard_car" route="r_1_0_7" depart="644.0" departLane="random" departSpeed="10" />
    <vehicle id="93" type="standard_car" route="r_1_1_16" depart="655.0" departLane="random" departSpeed="10" />
    <vehicle id="94" type="standard_car" route="r_1_1_12" depart="660.0" departLane="random" departSpeed="10" />
    <vehicle id="95" type="standard_car" route="r_1_2_21" depart="666.0" departLane="random" departSpeed="10" />
    <vehicle id="96" type="standard_car" route="r_3_0_40" depart="673.0" departLane="random" departSpeed="10" />
    <vehicle id="97" type="standard_car" route="r_1_1_18" depart="675.0" departLane="random" departSpeed="10" />
    <vehicle id="98" type="standard_car" route="r_1_0_9" depart="682.0" departLane="random" departSpeed="10" />
    <vehicle id="99" type="standard_car" route="r_2_0_24" depart="682.0" departLane="random" departSpeed="10" />
    <vehicle id="100" type="standard_car" route="r_0_2_1" depart="690.0" departLane="random" departSpeed="10" />
    <vehicle id="101" type="standard_car" route="r_2_1_33" depart="690.0" departLane="random" departSpeed="10" />
    <vehicle id="102" type="standard_car" route="r_2_0_24" depart="692.0" departLane="random" departSpeed="10" />
    <vehicle id="103" type="standard_car" route="r_0_2_3" depart="707.0" departLane="random" departSpeed="10" />
    <vehicle id="104" type="standard_car" route="r_1_0_6" depart="709.0" departLane="random" departSpeed="10" />
    <vehicle id="105" type="standard_car" route="r_1_0_5" depart="711.0" departLane="random" departSpeed="10" />
    <vehicle id="106" type="standard_car" route="r_4_0_53" depart="714.0" departLane="random" departSpeed="10" />
    <vehicle id="107" type="standard_car" route="r_1_0_9" depart="717.0" departLane="random" departSpeed="10" />
    <vehicle id="108" type="standard_car" route="r_0_2_2" depart="719.0" departLane="random" departSpeed="10" />
    <vehicle id="109" type="standard_car" route="r_3_0_40" depart="720.0" departLane="random" departSpeed="10" />
    <vehicle id="110" type="standard_car" route="r_3_0_40" depart="731.0" departLane="random" departSpeed="10" />
    <vehicle id="111" type="standard_car" route="r_2_1_33" depart="748.0" departLane="random" departSpeed="10" />
    <vehicle id="112" type="standard_car" route="r_2_2_37" depart="748.0" departLane="random" departSpeed="10" />
    <vehicle id="113" type="standard_car" route="r_1_1_16" depart="767.0" departLane="random" departSpeed="10" />
    <vehicle id="114" type="standard_car" route="r_4_0_55" depart="775.0" departLane="random" departSpeed="10" />
    <vehicle id="115" type="standard_car" route="r_2_1_33" depart="777.0" departLane="random" departSpeed="10" />
    <vehicle id="116" type="standard_car" route="r_2_1_28" depart="780.0" departLane="random" departSpeed="10" />
    <vehicle id="117" type="standard_car" route="r_3_1_44" depart="782.0" departLane="random" departSpeed="10" />
    <vehicle id="118" type="standard_car" route="r_2_1_33" depart="785.0" departLane="random" departSpeed="10" />
    <vehicle id="119" type="standard_car" route="r_0_2_3" depart="795.0" departLane="random" departSpeed="10" />
    <vehicle id="120" type="standard_car" route="r_1_1_13" depart="799.0" departLane="random" departSpeed="10" />
    <vehicle id="121" type="standard_car" route="r_4_0_55" depart="805.0" departLane="random" departSpeed="10" />
    <vehicle id="122" type="standard_car" route="r_3_1_47" depart="809.0" departLane="random" departSpeed="10" />
    <vehicle id="123" type="standard_car" route="r_2_0_25" depart="810.0" departLane="random" departSpeed="10" />
    <vehicle id="124" type="standard_car" route="r_1_2_20" depart="814.0" departLane="random" departSpeed="10" />
    <vehicle id="125" type="standard_car" route="r_3_1_47" depart="818.0" departLane="random" departSpeed="10" />
    <vehicle id="126" type="standard_car" route="r_3_1_50" depart="828.0" departLane="random" departSpeed="10" />
    <vehicle id="127" type="standard_car" route="r_2_0_27" depart="832.0" departLane="random" departSpeed="10" />
    <vehicle id="128" type="standard_car" route="r_2_1_30" depart="840.0" departLane="random" departSpeed="10" />
    <vehicle id="129" type="standard_car" route="r_3_1_45" depart="845.0" departLane="random" departSpeed="10" />
    <vehicle id="130" type="standard_car" route="r_1_2_21" depart="847.0" departLane="random" departSpeed="10" />
    <vehicle id="131" type="standard_car" route="r_4_0_52" depart="856.0" departLane="random" departSpeed="10" />
    <vehicle id="132" type="standard_car" route="r_1_0_11" depart="860.0" departLane="random" departSpeed="10" />
    <vehicle id="133" type="standard_car" route="r_3_0_42" depart="865.0" departLane="random" departSpeed="10" />
    <vehicle id="134" type="standard_car" route="r_2_0_26" depart="867.0" departLane="random" departSpeed="10" />
    <vehicle id="135" type="standard_car" route="r_3_1_46" depart="870.0" departLane="random" departSpeed="10" />
    <vehicle id="136" type="standard_car" route="r_2_2_39" depart="877.0" departLane="random" departSpeed="10" />
    <vehicle id="137" type="standard_car" route="r_1_1_18" depart="882.0" departLane="random" departSpeed="10" />
    <vehicle id="138" type="standard_car" route="r_3_1_47" depart="882.0" departLane="random" departSpeed="10" />
    <vehicle id="139" type="standard_car" route="r_4_0_52" depart="884.0" departLane="random" departSpeed="10" />
    <vehicle id="140" type="standard_car" route="r_1_0_6" depart="887.0" departLane="random" departSpeed="10" />
    <vehicle id="141" type="standard_car" route="r_1_0_7" depart="894.0" departLane="random" departSpeed="10" />
    <vehicle id="142" type="standard_car" route="r_2_1_32" depart="896.0" departLane="random" departSpeed="10" />
    <vehicle id="143" type="standard_car" route="r_2_2_38" depart="898.0" departLane="random" departSpeed="10" />
    <vehicle id="144" type="standard_car" route="r_0_2_1" depart="901.0" departLane="random" departSpeed="10" />
    <vehicle id="145" type="standard_car" route="r_1_0_9" depart="903.0" departLane="random" departSpeed="10" />
    <vehicle id="146" type="standard_car" route="r_3_1_51" depart="908.0" departLane="random" departSpeed="10" />
    <vehicle id="147" type="standard_car" route="r_2_1_28" depart="921.0" departLane="random" departSpeed="10" />
    <vehicle id="148" type="standard_car" route="r_1_0_6" depart="935.0" departLane="random" departSpeed="10" />
    <vehicle id="149" type="standard_car" route="r_2_0_27" depart="938.0" departLane="random" departSpeed="10" />
    <vehicle id="150" type="standard_car" route="r_1_1_17" depart="944.0" departLane="random" departSpeed="10" />
    <vehicle id="151" type="standard_car" route="r_2_0_25" depart="957.0" departLane="random" departSpeed="10" />
    <vehicle id="152" type="standard_car" route="r_4_0_52" depart="970.0" departLane="random" departSpeed="10" />
    <vehicle id="153" type="standard_car" route="r_1_0_7" depart="970.0" departLane="random" departSpeed="10" />
    <vehicle id="154" type="standard_car" route="r_4_0_54" depart="974.0" departLane="random" departSpeed="10" />
    <vehicle id="155" type="standard_car" route="r_2_0_26" depart="979.0" departLane="random" departSpeed="10" />
    <vehicle id="156" type="standard_car" route="r_2_2_38" depart="1000.0" departLane="random" departSpeed="10" />
    <vehicle id="157" type="standard_car" route="r_3_1_51" depart="1008.0" departLane="random" departSpeed="10" />
    <vehicle id="158" type="standard_car" route="r_3_0_40" depart="1016.0" departLane="random" departSpeed="10" />
    <vehicle id="159" type="standard_car" route="r_1_2_22" depart="1026.0" departLane="random" departSpeed="10" />
    <vehicle id="160" type="standard_car" route="r_1_0_7" depart="1028.0" departLane="random" departSpeed="10" />
    <vehicle id="161" type="standard_car" route="r_1_1_15" depart="1036.0" departLane="random" departSpeed="10" />
    <vehicle id="162" type="standard_car" route="r_1_0_5" depart="1041.0" departLane="random" departSpeed="10" />
    <vehicle id="163" type="standard_car" route="r_1_0_10" depart="1043.0" departLane="random" departSpeed="10" />
    <vehicle id="164" type="standard_car" route="r_2_1_34" depart="1046.0" departLane="random" departSpeed="10" />
    <vehicle id="165" type="standard_car" route="r_3_0_42" depart="1047.0" departLane="random" departSpeed="10" />
    <vehicle id="166" type="standard_car" route="r_0_2_2" depart="1052.0" departLane="random" departSpeed="10" />
    <vehicle id="167" type="standard_car" route="r_1_0_5" depart="1057.0" departLane="random" departSpeed="10" />
    <vehicle id="168" type="standard_car" route="r_0_2_1" depart="1059.0" departLane="random" departSpeed="10" />
    <vehicle id="169" type="standard_car" route="r_2_1_32" depart="1060.0" departLane="random" departSpeed="10" />
    <vehicle id="170" type="standard_car" route="r_1_0_4" depart="1061.0" departLane="random" departSpeed="10" />
    <vehicle id="171" type="standard_car" route="r_2_1_29" depart="1074.0" departLane="random" departSpeed="10" />
    <vehicle id="172" type="standard_car" route="r_2_2_39" depart="1076.0" departLane="random" departSpeed="10" />
    <vehicle id="173" type="standard_car" route="r_3_1_48" depart="1078.0" departLane="random" departSpeed="10" />
    <vehicle id="174" type="standard_car" route="r_2_0_25" depart="1085.0" departLane="random" departSpeed="10" />
    <vehicle id="175" type="standard_car" route="r_3_1_45" depart="1097.0" departLane="random" departSpeed="10" />
    <vehicle id="176" type="standard_car" route="r_2_1_35" depart="1098.0" departLane="random" departSpeed="10" />
    <vehicle id="177" type="standard_car" route="r_2_2_36" depart="1104.0" departLane="random" departSpeed="10" />
    <vehicle id="178" type="standard_car" route="r_1_2_21" depart="1153.0" departLane="random" departSpeed="10" />
    <vehicle id="179" type="standard_car" route="r_0_2_3" depart="1210.0" departLane="random" departSpeed="10" />
    <vehicle id="180" type="standard_car" route="r_3_0_40" depart="1214.0" departLane="random" departSpeed="10" />
    <vehicle id="181" type="standard_car" route="r_2_0_24" depart="1220.0" departLane="random" departSpeed="10" />
    <vehicle id="182" type="standard_car" route="r_2_1_31" depart="1257.0" departLane="random" departSpeed="10" />
    <vehicle id="183" type="standard_car" route="r_2_1_35" depart="1266.0" departLane="random" departSpeed="10" />
    <vehicle id="184" type="standard_car" route="r_0_2_1" depart="1270.0" departLane="random" departSpeed="10" />
    <vehicle id="185" type="standard_car" route="r_2_1_31" depart="1298.0" departLane="random" departSpeed="10" />
    <vehicle id="186" type="standard_car" route="r_4_0_55" depart="1301.0" departLane="random" departSpeed="10" />
    <vehicle id="187" type="standard_car" route="r_1_1_17" depart="1301.0" departLane="random" departSpeed="10" />
    <vehicle id="188" type="standard_car" route="r_1_0_6" depart="1330.0" departLane="random" departSpeed="10" />
    <vehicle id="189" type="standard_car" route="r_3_1_46" depart="1339.0" departLane="random" departSpeed="10" />
    <vehicle id="190" type="standard_car" route="r_2_1_30" depart="1342.0" departLane="random" departSpeed="10" />
    <vehicle id="191" type="standard_car" route="r_0_2_0" depart="1374.0" departLane="random" departSpeed="10" />
    <vehicle id="192" type="standard_car" route="r_2_1_35" depart="1424.0" departLane="random" departSpeed="10" />
    <vehicle id="193" type="standard_car" route="r_1_1_15" depart="1454.0" departLane="random" departSpeed="10" />
    <vehicle id="194" type="standard_car" route="r_2_1_29" depart="1472.0" departLane="random" departSpeed="10" />
    <vehicle id="195" type="standard_car" route="r_2_0_27" depart="1486.0" departLane="random" departSpeed="10" />
    <vehicle id="196" type="standard_car" route="r_2_1_28" depart="1528.0" departLane="random" departSpeed="10" />
    <vehicle id="197" type="standard_car" route="r_0_2_0" depart="1549.0" departLane="random" departSpeed="10" />
    <vehicle id="198" type="standard_car" route="r_2_1_28" depart="1729.0" departLane="random" departSpeed="10" />
    <vehicle id="199" type="standard_car" route="r_3_1_50" depart="1855.0" departLane="random" departSpeed="10" />
</routes>
