<routes>
            <vType accel="1.0" decel="4.5" id="standard_car" length="5.0" minGap="2.5" maxSpeed="25" sigma="0.5" />

            <route id="r_0_2_0" edges="N1_L_N1 N1_N2 N2_N2_R"/>
            <route id="r_0_2_1" edges="N2_D_N2 N2_N3 N3_N3_U"/>
            <route id="r_0_2_2" edges="N3_U_N3 N3_N2 N2_N2_D"/>
            <route id="r_0_2_3" edges="N4_U_N4 N4_N1 N1_N1_D"/>
            <route id="r_1_0_4" edges="N1_D_N1 N1_N1_L"/>
            <route id="r_1_0_5" edges="N1_L_N1 N1_N1_D"/>
            <route id="r_1_0_6" edges="N2_D_N2 N2_N2_R"/>
            <route id="r_1_0_7" edges="N2_R_N2 N2_N2_D"/>
            <route id="r_1_0_8" edges="N3_R_N3 N3_N3_U"/>
            <route id="r_1_0_9" edges="N3_U_N3 N3_N3_R"/>
            <route id="r_1_0_10" edges="N4_L_N4 N4_N4_U"/>
            <route id="r_1_0_11" edges="N4_U_N4 N4_N4_L"/>
            <route id="r_1_1_12" edges="N1_D_N1 N1_N2 N2_N2_R"/>
            <route id="r_1_1_13" edges="N1_L_N1 N1_N2 N2_N2_D"/>
            <route id="r_1_1_14" edges="N2_D_N2 N2_N3 N3_N3_R"/>
            <route id="r_1_1_15" edges="N2_R_N2 N2_N3 N3_N3_U"/>
            <route id="r_1_1_16" edges="N3_R_N3 N3_N2 N2_N2_D"/>
            <route id="r_1_1_17" edges="N3_U_N3 N3_N2 N2_N2_R"/>
            <route id="r_1_1_18" edges="N4_L_N4 N4_N1 N1_N1_D"/>
            <route id="r_1_1_19" edges="N4_U_N4 N4_N1 N1_N1_L"/>
            <route id="r_1_2_20" edges="N1_L_N1 N1_N2 N2_N3 N3_N3_U"/>
            <route id="r_1_2_21" edges="N2_D_N2 N2_N3 N3_N4 N4_N4_L"/>
            <route id="r_1_2_22" edges="N3_U_N3 N3_N2 N2_N1 N1_N1_L"/>
            <route id="r_1_2_23" edges="N4_U_N4 N4_N1 N1_N2 N2_N2_R"/>
            <route id="r_2_0_24" edges="N1_D_N1 N1_N2 N2_N2_D"/>
            <route id="r_2_0_25" edges="N2_R_N2 N2_N3 N3_N3_R"/>
            <route id="r_2_0_26" edges="N3_R_N3 N3_N2 N2_N2_R"/>
            <route id="r_2_0_27" edges="N4_L_N4 N4_N1 N1_N1_L"/>
            <route id="r_2_1_28" edges="N1_D_N1 N1_N2 N2_N3 N3_N3_U"/>
            <route id="r_2_1_29" edges="N1_L_N1 N1_N2 N2_N3 N3_N3_R"/>
            <route id="r_2_1_30" edges="N2_D_N2 N2_N3 N3_N4 N4_N4_U"/>
            <route id="r_2_1_31" edges="N2_R_N2 N2_N3 N3_N4 N4_N4_L"/>
            <route id="r_2_1_32" edges="N3_R_N3 N3_N2 N2_N1 N1_N1_L"/>
            <route id="r_2_1_33" edges="N3_U_N3 N3_N2 N2_N1 N1_N1_D"/>
            <route id="r_2_1_34" edges="N4_L_N4 N4_N1 N1_N2 N2_N2_R"/>
            <route id="r_2_1_35" edges="N4_U_N4 N4_N1 N1_N2 N2_N2_D"/>
            <route id="r_2_2_36" edges="N1_L_N1 N1_N2 N2_N3 N3_N4 N4_N4_L"/>
            <route id="r_2_2_37" edges="N2_D_N2 N2_N3 N3_N4 N4_N1 N1_N1_D"/>
            <route id="r_2_2_38" edges="N3_U_N3 N3_N2 N2_N1 N1_N4 N4_N4_U"/>
            <route id="r_2_2_39" edges="N4_U_N4 N4_N1 N1_N2 N2_N3 N3_N3_U"/>
            <route id="r_3_0_40" edges="N1_D_N1 N1_N2 N2_N3 N3_N3_R"/>
            <route id="r_3_0_41" edges="N2_R_N2 N2_N3 N3_N4 N4_N4_U"/>
            <route id="r_3_0_42" edges="N3_R_N3 N3_N2 N2_N1 N1_N1_D"/>
            <route id="r_3_0_43" edges="N4_L_N4 N4_N1 N1_N2 N2_N2_D"/>
            <route id="r_3_1_44" edges="N1_D_N1 N1_N2 N2_N3 N3_N4 N4_N4_L"/>
            <route id="r_3_1_45" edges="N1_L_N1 N1_N2 N2_N3 N3_N4 N4_N4_U"/>
            <route id="r_3_1_46" edges="N2_D_N2 N2_N3 N3_N4 N4_N1 N1_N1_L"/>
            <route id="r_3_1_47" edges="N2_R_N2 N2_N3 N3_N4 N4_N1 N1_N1_D"/>
            <route id="r_3_1_48" edges="N3_R_N3 N3_N2 N2_N1 N1_N4 N4_N4_U"/>
            <route id="r_3_1_49" edges="N3_U_N3 N3_N2 N2_N1 N1_N4 N4_N4_L"/>
            <route id="r_3_1_50" edges="N4_L_N4 N4_N1 N1_N2 N2_N3 N3_N3_U"/>
            <route id="r_3_1_51" edges="N4_U_N4 N4_N1 N1_N2 N2_N3 N3_N3_R"/>
            <route id="r_4_0_52" edges="N1_D_N1 N1_N2 N2_N3 N3_N4 N4_N4_U"/>
            <route id="r_4_0_53" edges="N2_R_N2 N2_N3 N3_N4 N4_N1 N1_N1_L"/>
            <route id="r_4_0_54" edges="N3_R_N3 N3_N2 N2_N1 N1_N4 N4_N4_L"/>
            <route id="r_4_0_55" edges="N4_L_N4 N4_N1 N1_N2 N2_N3 N3_N3_R"/>
    <vehicle id="0" type="standard_car" route="r_2_2_37" depart="1.0" departLane="random" departSpeed="10" />
    <vehicle id="1" type="standard_car" route="r_1_0_10" depart="2.0" departLane="random" departSpeed="10" />
    <vehicle id="2" type="standard_car" route="r_3_1_51" depart="4.0" departLane="random" departSpeed="10" />
    <vehicle id="3" type="standard_car" route="r_3_1_47" depart="9.0" departLane="random" departSpeed="10" />
    <vehicle id="4" type="standard_car" route="r_3_1_51" depart="9.0" departLane="random" departSpeed="10" />
    <vehicle id="5" type="standard_car" route="r_3_1_44" depart="10.0" departLane="random" departSpeed="10" />
    <vehicle id="6" type="standard_car" route="r_1_1_19" depart="10.0" departLane="random" departSpeed="10" />
    <vehicle id="7" type="standard_car" route="r_3_0_42" depart="10.0" departLane="random" departSpeed="10" />
    <vehicle id="8" type="standard_car" route="r_3_1_46" depart="11.0" departLane="random" departSpeed="10" />
    <vehicle id="9" type="standard_car" route="r_1_2_20" depart="11.0" departLane="random" departSpeed="10" />
    <vehicle id="10" type="standard_car" route="r_0_2_3" depart="11.0" departLane="random" departSpeed="10" />
    <vehicle id="11" type="standard_car" route="r_2_1_33" depart="11.0" departLane="random" departSpeed="10" />
    <vehicle id="12" type="standard_car" route="r_3_1_46" depart="11.0" departLane="random" departSpeed="10" />
    <vehicle id="13" type="standard_car" route="r_1_0_6" depart="12.0" departLane="random" departSpeed="10" />
    <vehicle id="14" type="standard_car" route="r_3_1_46" depart="13.0" departLane="random" departSpeed="10" />
    <vehicle id="15" type="standard_car" route="r_0_2_0" depart="13.0" departLane="random" departSpeed="10" />
    <vehicle id="16" type="standard_car" route="r_1_1_17" depart="14.0" departLane="random" departSpeed="10" />
    <vehicle id="17" type="standard_car" route="r_1_1_18" depart="16.0" departLane="random" departSpeed="10" />
    <vehicle id="18" type="standard_car" route="r_2_1_29" depart="17.0" departLane="random" departSpeed="10" />
    <vehicle id="19" type="standard_car" route="r_2_2_37" depart="18.0" departLane="random" departSpeed="10" />
    <vehicle id="20" type="standard_car" route="r_4_0_55" depart="19.0" departLane="random" departSpeed="10" />
    <vehicle id="21" type="standard_car" route="r_2_2_36" depart="19.0" departLane="random" departSpeed="10" />
    <vehicle id="22" type="standard_car" route="r_2_2_37" depart="20.0" departLane="random" departSpeed="10" />
    <vehicle id="23" type="standard_car" route="r_1_2_22" depart="21.0" departLane="random" departSpeed="10" />
    <vehicle id="24" type="standard_car" route="r_2_1_34" depart="21.0" departLane="random" departSpeed="10" />
    <vehicle id="25" type="standard_car" route="r_1_1_16" depart="21.0" departLane="random" departSpeed="10" />
    <vehicle id="26" type="standard_car" route="r_4_0_54" depart="21.0" departLane="random" departSpeed="10" />
    <vehicle id="27" type="standard_car" route="r_1_2_23" depart="21.0" departLane="random" departSpeed="10" />
    <vehicle id="28" type="standard_car" route="r_1_0_5" depart="22.0" departLane="random" departSpeed="10" />
    <vehicle id="29" type="standard_car" route="r_1_0_10" depart="22.0" departLane="random" departSpeed="10" />
    <vehicle id="30" type="standard_car" route="r_1_1_16" depart="23.0" departLane="random" departSpeed="10" />
    <vehicle id="31" type="standard_car" route="r_3_1_47" depart="24.0" departLane="random" departSpeed="10" />
    <vehicle id="32" type="standard_car" route="r_3_0_40" depart="25.0" departLane="random" departSpeed="10" />
    <vehicle id="33" type="standard_car" route="r_1_2_22" depart="26.0" departLane="random" departSpeed="10" />
    <vehicle id="34" type="standard_car" route="r_3_0_41" depart="26.0" departLane="random" departSpeed="10" />
    <vehicle id="35" type="standard_car" route="r_3_1_47" depart="26.0" departLane="random" departSpeed="10" />
    <vehicle id="36" type="standard_car" route="r_3_1_44" depart="27.0" departLane="random" departSpeed="10" />
    <vehicle id="37" type="standard_car" route="r_1_1_14" depart="28.0" departLane="random" departSpeed="10" />
    <vehicle id="38" type="standard_car" route="r_0_2_3" depart="29.0" departLane="random" departSpeed="10" />
    <vehicle id="39" type="standard_car" route="r_1_1_19" depart="29.0" departLane="random" departSpeed="10" />
    <vehicle id="40" type="standard_car" route="r_0_2_3" depart="29.0" departLane="random" departSpeed="10" />
    <vehicle id="41" type="standard_car" route="r_1_0_6" depart="29.0" departLane="random" departSpeed="10" />
    <vehicle id="42" type="standard_car" route="r_1_1_15" depart="30.0" departLane="random" departSpeed="10" />
    <vehicle id="43" type="standard_car" route="r_4_0_55" depart="30.0" departLane="random" departSpeed="10" />
    <vehicle id="44" type="standard_car" route="r_1_1_15" depart="30.0" departLane="random" departSpeed="10" />
    <vehicle id="45" type="standard_car" route="r_2_1_33" depart="31.0" departLane="random" departSpeed="10" />
    <vehicle id="46" type="standard_car" route="r_4_0_55" depart="31.0" departLane="random" departSpeed="10" />
    <vehicle id="47" type="standard_car" route="r_2_1_34" depart="31.0" departLane="random" departSpeed="10" />
    <vehicle id="48" type="standard_car" route="r_1_0_7" depart="31.0" departLane="random" departSpeed="10" />
    <vehicle id="49" type="standard_car" route="r_3_0_41" depart="31.0" departLane="random" departSpeed="10" />
    <vehicle id="50" type="standard_car" route="r_4_0_55" depart="32.0" departLane="random" departSpeed="10" />
    <vehicle id="51" type="standard_car" route="r_3_1_51" depart="32.0" departLane="random" departSpeed="10" />
    <vehicle id="52" type="standard_car" route="r_4_0_54" depart="33.0" departLane="random" departSpeed="10" />
    <vehicle id="53" type="standard_car" route="r_1_1_17" depart="34.0" departLane="random" departSpeed="10" />
    <vehicle id="54" type="standard_car" route="r_3_0_41" depart="35.0" departLane="random" departSpeed="10" />
    <vehicle id="55" type="standard_car" route="r_3_1_49" depart="35.0" departLane="random" departSpeed="10" />
    <vehicle id="56" type="standard_car" route="r_1_2_22" depart="35.0" departLane="random" departSpeed="10" />
    <vehicle id="57" type="standard_car" route="r_1_1_16" depart="35.0" departLane="random" departSpeed="10" />
    <vehicle id="58" type="standard_car" route="r_2_0_26" depart="36.0" departLane="random" departSpeed="10" />
    <vehicle id="59" type="standard_car" route="r_3_1_47" depart="36.0" departLane="random" departSpeed="10" />
    <vehicle id="60" type="standard_car" route="r_3_1_51" depart="36.0" departLane="random" departSpeed="10" />
    <vehicle id="61" type="standard_car" route="r_1_0_4" depart="37.0" departLane="random" departSpeed="10" />
    <vehicle id="62" type="standard_car" route="r_3_1_48" depart="37.0" departLane="random" departSpeed="10" />
    <vehicle id="63" type="standard_car" route="r_3_1_44" depart="38.0" departLane="random" departSpeed="10" />
    <vehicle id="64" type="standard_car" route="r_2_2_38" depart="38.0" departLane="random" departSpeed="10" />
    <vehicle id="65" type="standard_car" route="r_4_0_52" depart="38.0" departLane="random" departSpeed="10" />
    <vehicle id="66" type="standard_car" route="r_2_1_31" depart="38.0" departLane="random" departSpeed="10" />
    <vehicle id="67" type="standard_car" route="r_1_1_17" depart="39.0" departLane="random" departSpeed="10" />
    <vehicle id="68" type="standard_car" route="r_2_1_33" depart="39.0" departLane="random" departSpeed="10" />
    <vehicle id="69" type="standard_car" route="r_1_2_20" depart="40.0" departLane="random" departSpeed="10" />
    <vehicle id="70" type="standard_car" route="r_1_1_17" depart="41.0" departLane="random" departSpeed="10" />
    <vehicle id="71" type="standard_car" route="r_3_0_40" depart="41.0" departLane="random" departSpeed="10" />
    <vehicle id="72" type="standard_car" route="r_3_0_41" depart="42.0" departLane="random" departSpeed="10" />
    <vehicle id="73" type="standard_car" route="r_3_0_42" depart="42.0" departLane="random" departSpeed="10" />
    <vehicle id="74" type="standard_car" route="r_2_1_33" depart="43.0" departLane="random" departSpeed="10" />
    <vehicle id="75" type="standard_car" route="r_2_2_39" depart="43.0" departLane="random" departSpeed="10" />
    <vehicle id="76" type="standard_car" route="r_2_1_31" depart="43.0" departLane="random" departSpeed="10" />
    <vehicle id="77" type="standard_car" route="r_3_1_48" depart="44.0" departLane="random" departSpeed="10" />
    <vehicle id="78" type="standard_car" route="r_3_1_49" depart="44.0" departLane="random" departSpeed="10" />
    <vehicle id="79" type="standard_car" route="r_2_2_36" depart="44.0" departLane="random" departSpeed="10" />
    <vehicle id="80" type="standard_car" route="r_3_1_45" depart="44.0" departLane="random" departSpeed="10" />
    <vehicle id="81" type="standard_car" route="r_3_0_41" depart="45.0" departLane="random" departSpeed="10" />
    <vehicle id="82" type="standard_car" route="r_1_2_22" depart="45.0" departLane="random" departSpeed="10" />
    <vehicle id="83" type="standard_car" route="r_3_1_47" depart="46.0" departLane="random" departSpeed="10" />
    <vehicle id="84" type="standard_car" route="r_1_0_6" depart="46.0" departLane="random" departSpeed="10" />
    <vehicle id="85" type="standard_car" route="r_1_0_9" depart="46.0" departLane="random" departSpeed="10" />
    <vehicle id="86" type="standard_car" route="r_1_1_12" depart="46.0" departLane="random" departSpeed="10" />
    <vehicle id="87" type="standard_car" route="r_1_2_23" depart="47.0" departLane="random" departSpeed="10" />
    <vehicle id="88" type="standard_car" route="r_2_2_38" depart="47.0" departLane="random" departSpeed="10" />
    <vehicle id="89" type="standard_car" route="r_4_0_52" depart="48.0" departLane="random" departSpeed="10" />
    <vehicle id="90" type="standard_car" route="r_1_2_23" depart="49.0" departLane="random" departSpeed="10" />
    <vehicle id="91" type="standard_car" route="r_1_1_17" depart="49.0" departLane="random" departSpeed="10" />
    <vehicle id="92" type="standard_car" route="r_1_2_23" depart="49.0" departLane="random" departSpeed="10" />
    <vehicle id="93" type="standard_car" route="r_1_1_13" depart="49.0" departLane="random" departSpeed="10" />
    <vehicle id="94" type="standard_car" route="r_3_1_47" depart="49.0" departLane="random" departSpeed="10" />
    <vehicle id="95" type="standard_car" route="r_3_1_46" depart="50.0" departLane="random" departSpeed="10" />
    <vehicle id="96" type="standard_car" route="r_2_1_32" depart="50.0" departLane="random" departSpeed="10" />
    <vehicle id="97" type="standard_car" route="r_3_0_42" depart="51.0" departLane="random" departSpeed="10" />
    <vehicle id="98" type="standard_car" route="r_1_1_13" depart="52.0" departLane="random" departSpeed="10" />
    <vehicle id="99" type="standard_car" route="r_2_1_31" depart="52.0" departLane="random" departSpeed="10" />
    <vehicle id="100" type="standard_car" route="r_1_2_22" depart="52.0" departLane="random" departSpeed="10" />
    <vehicle id="101" type="standard_car" route="r_1_2_20" depart="52.0" departLane="random" departSpeed="10" />
    <vehicle id="102" type="standard_car" route="r_3_1_48" depart="52.0" departLane="random" departSpeed="10" />
    <vehicle id="103" type="standard_car" route="r_1_1_16" depart="52.0" departLane="random" departSpeed="10" />
    <vehicle id="104" type="standard_car" route="r_2_1_31" depart="53.0" departLane="random" departSpeed="10" />
    <vehicle id="105" type="standard_car" route="r_1_2_20" depart="54.0" departLane="random" departSpeed="10" />
    <vehicle id="106" type="standard_car" route="r_3_1_44" depart="55.0" departLane="random" departSpeed="10" />
    <vehicle id="107" type="standard_car" route="r_1_1_18" depart="55.0" departLane="random" departSpeed="10" />
    <vehicle id="108" type="standard_car" route="r_1_1_12" depart="55.0" departLane="random" departSpeed="10" />
    <vehicle id="109" type="standard_car" route="r_1_2_20" depart="56.0" departLane="random" departSpeed="10" />
    <vehicle id="110" type="standard_car" route="r_1_0_9" depart="56.0" departLane="random" departSpeed="10" />
    <vehicle id="111" type="standard_car" route="r_2_0_27" depart="56.0" departLane="random" departSpeed="10" />
    <vehicle id="112" type="standard_car" route="r_3_1_50" depart="57.0" departLane="random" departSpeed="10" />
    <vehicle id="113" type="standard_car" route="r_1_1_18" depart="57.0" departLane="random" departSpeed="10" />
    <vehicle id="114" type="standard_car" route="r_1_0_4" depart="57.0" departLane="random" departSpeed="10" />
    <vehicle id="115" type="standard_car" route="r_3_1_44" depart="57.0" departLane="random" departSpeed="10" />
    <vehicle id="116" type="standard_car" route="r_2_0_24" depart="58.0" departLane="random" departSpeed="10" />
    <vehicle id="117" type="standard_car" route="r_2_0_24" depart="58.0" departLane="random" departSpeed="10" />
    <vehicle id="118" type="standard_car" route="r_2_2_39" depart="58.0" departLane="random" departSpeed="10" />
    <vehicle id="119" type="standard_car" route="r_2_1_28" depart="59.0" departLane="random" departSpeed="10" />
    <vehicle id="120" type="standard_car" route="r_2_1_31" depart="59.0" departLane="random" departSpeed="10" />
    <vehicle id="121" type="standard_car" route="r_2_1_33" depart="59.0" departLane="random" departSpeed="10" />
    <vehicle id="122" type="standard_car" route="r_3_0_40" depart="59.0" departLane="random" departSpeed="10" />
    <vehicle id="123" type="standard_car" route="r_1_1_17" depart="59.0" departLane="random" departSpeed="10" />
    <vehicle id="124" type="standard_car" route="r_3_1_50" depart="59.0" departLane="random" departSpeed="10" />
    <vehicle id="125" type="standard_car" route="r_2_0_25" depart="60.0" departLane="random" departSpeed="10" />
    <vehicle id="126" type="standard_car" route="r_2_1_31" depart="60.0" departLane="random" departSpeed="10" />
    <vehicle id="127" type="standard_car" route="r_1_0_8" depart="60.0" departLane="random" departSpeed="10" />
    <vehicle id="128" type="standard_car" route="r_0_2_0" depart="60.0" departLane="random" departSpeed="10" />
    <vehicle id="129" type="standard_car" route="r_2_2_38" depart="62.0" departLane="random" departSpeed="10" />
    <vehicle id="130" type="standard_car" route="r_3_1_50" depart="62.0" departLane="random" departSpeed="10" />
    <vehicle id="131" type="standard_car" route="r_1_0_6" depart="62.0" departLane="random" departSpeed="10" />
    <vehicle id="132" type="standard_car" route="r_4_0_52" depart="63.0" departLane="random" departSpeed="10" />
    <vehicle id="133" type="standard_car" route="r_2_1_30" depart="63.0" departLane="random" departSpeed="10" />
    <vehicle id="134" type="standard_car" route="r_4_0_53" depart="65.0" departLane="random" departSpeed="10" />
    <vehicle id="135" type="standard_car" route="r_1_1_14" depart="65.0" departLane="random" departSpeed="10" />
    <vehicle id="136" type="standard_car" route="r_3_0_41" depart="66.0" departLane="random" departSpeed="10" />
    <vehicle id="137" type="standard_car" route="r_2_0_26" depart="66.0" departLane="random" departSpeed="10" />
    <vehicle id="138" type="standard_car" route="r_1_0_9" depart="66.0" departLane="random" departSpeed="10" />
    <vehicle id="139" type="standard_car" route="r_1_0_11" depart="67.0" departLane="random" departSpeed="10" />
    <vehicle id="140" type="standard_car" route="r_2_1_28" depart="68.0" departLane="random" departSpeed="10" />
    <vehicle id="141" type="standard_car" route="r_1_1_15" depart="68.0" departLane="random" departSpeed="10" />
    <vehicle id="142" type="standard_car" route="r_1_0_5" depart="69.0" departLane="random" departSpeed="10" />
    <vehicle id="143" type="standard_car" route="r_2_0_26" depart="69.0" departLane="random" departSpeed="10" />
    <vehicle id="144" type="standard_car" route="r_2_2_38" depart="69.0" departLane="random" departSpeed="10" />
    <vehicle id="145" type="standard_car" route="r_1_1_16" depart="70.0" departLane="random" departSpeed="10" />
    <vehicle id="146" type="standard_car" route="r_2_1_29" depart="70.0" departLane="random" departSpeed="10" />
    <vehicle id="147" type="standard_car" route="r_1_2_22" depart="70.0" departLane="random" departSpeed="10" />
    <vehicle id="148" type="standard_car" route="r_0_2_2" depart="70.0" departLane="random" departSpeed="10" />
    <vehicle id="149" type="standard_car" route="r_1_0_4" depart="71.0" departLane="random" departSpeed="10" />
    <vehicle id="150" type="standard_car" route="r_1_0_5" depart="71.0" departLane="random" departSpeed="10" />
    <vehicle id="151" type="standard_car" route="r_1_1_19" depart="72.0" departLane="random" departSpeed="10" />
    <vehicle id="152" type="standard_car" route="r_3_1_50" depart="72.0" departLane="random" departSpeed="10" />
    <vehicle id="153" type="standard_car" route="r_2_0_26" depart="72.0" departLane="random" departSpeed="10" />
    <vehicle id="154" type="standard_car" route="r_1_1_15" depart="72.0" departLane="random" departSpeed="10" />
    <vehicle id="155" type="standard_car" route="r_2_1_29" depart="72.0" departLane="random" departSpeed="10" />
    <vehicle id="156" type="standard_car" route="r_1_2_20" depart="72.0" departLane="random" departSpeed="10" />
    <vehicle id="157" type="standard_car" route="r_1_0_6" depart="73.0" departLane="random" departSpeed="10" />
    <vehicle id="158" type="standard_car" route="r_3_1_50" depart="73.0" departLane="random" departSpeed="10" />
    <vehicle id="159" type="standard_car" route="r_2_2_37" depart="73.0" departLane="random" departSpeed="10" />
    <vehicle id="160" type="standard_car" route="r_3_1_48" depart="73.0" departLane="random" departSpeed="10" />
    <vehicle id="161" type="standard_car" route="r_1_2_22" depart="74.0" departLane="random" departSpeed="10" />
    <vehicle id="162" type="standard_car" route="r_2_0_26" depart="74.0" departLane="random" departSpeed="10" />
    <vehicle id="163" type="standard_car" route="r_1_2_20" depart="74.0" departLane="random" departSpeed="10" />
    <vehicle id="164" type="standard_car" route="r_3_1_50" depart="74.0" departLane="random" departSpeed="10" />
    <vehicle id="165" type="standard_car" route="r_2_0_26" depart="74.0" departLane="random" departSpeed="10" />
    <vehicle id="166" type="standard_car" route="r_3_1_49" depart="74.0" departLane="random" departSpeed="10" />
    <vehicle id="167" type="standard_car" route="r_1_2_22" depart="74.0" departLane="random" departSpeed="10" />
    <vehicle id="168" type="standard_car" route="r_4_0_55" depart="75.0" departLane="random" departSpeed="10" />
    <vehicle id="169" type="standard_car" route="r_3_0_43" depart="75.0" departLane="random" departSpeed="10" />
    <vehicle id="170" type="standard_car" route="r_3_0_43" depart="75.0" departLane="random" departSpeed="10" />
    <vehicle id="171" type="standard_car" route="r_2_1_31" depart="75.0" departLane="random" departSpeed="10" />
    <vehicle id="172" type="standard_car" route="r_2_1_32" depart="75.0" departLane="random" departSpeed="10" />
    <vehicle id="173" type="standard_car" route="r_2_1_30" depart="75.0" departLane="random" departSpeed="10" />
    <vehicle id="174" type="standard_car" route="r_2_1_30" depart="76.0" departLane="random" departSpeed="10" />
    <vehicle id="175" type="standard_car" route="r_2_0_24" depart="76.0" departLane="random" departSpeed="10" />
    <vehicle id="176" type="standard_car" route="r_1_0_8" depart="77.0" departLane="random" departSpeed="10" />
    <vehicle id="177" type="standard_car" route="r_2_1_31" depart="77.0" departLane="random" departSpeed="10" />
    <vehicle id="178" type="standard_car" route="r_4_0_52" depart="77.0" departLane="random" departSpeed="10" />
    <vehicle id="179" type="standard_car" route="r_1_1_17" depart="78.0" departLane="random" departSpeed="10" />
    <vehicle id="180" type="standard_car" route="r_2_1_29" depart="78.0" departLane="random" departSpeed="10" />
    <vehicle id="181" type="standard_car" route="r_1_0_7" depart="78.0" departLane="random" departSpeed="10" />
    <vehicle id="182" type="standard_car" route="r_0_2_2" depart="79.0" departLane="random" departSpeed="10" />
    <vehicle id="183" type="standard_car" route="r_3_1_45" depart="79.0" departLane="random" departSpeed="10" />
    <vehicle id="184" type="standard_car" route="r_2_1_28" depart="79.0" departLane="random" departSpeed="10" />
    <vehicle id="185" type="standard_car" route="r_2_1_31" depart="79.0" departLane="random" departSpeed="10" />
    <vehicle id="186" type="standard_car" route="r_1_1_14" depart="79.0" departLane="random" departSpeed="10" />
    <vehicle id="187" type="standard_car" route="r_0_2_1" depart="80.0" departLane="random" departSpeed="10" />
    <vehicle id="188" type="standard_car" route="r_1_1_12" depart="80.0" departLane="random" departSpeed="10" />
    <vehicle id="189" type="standard_car" route="r_1_1_17" depart="81.0" departLane="random" departSpeed="10" />
    <vehicle id="190" type="standard_car" route="r_2_0_25" depart="81.0" departLane="random" departSpeed="10" />
    <vehicle id="191" type="standard_car" route="r_1_1_17" depart="83.0" departLane="random" departSpeed="10" />
    <vehicle id="192" type="standard_car" route="r_1_1_12" depart="83.0" departLane="random" departSpeed="10" />
    <vehicle id="193" type="standard_car" route="r_3_0_43" depart="84.0" departLane="random" departSpeed="10" />
    <vehicle id="194" type="standard_car" route="r_2_1_33" depart="84.0" departLane="random" departSpeed="10" />
    <vehicle id="195" type="standard_car" route="r_2_1_28" depart="84.0" departLane="random" departSpeed="10" />
    <vehicle id="196" type="standard_car" route="r_1_2_23" depart="84.0" departLane="random" departSpeed="10" />
    <vehicle id="197" type="standard_car" route="r_2_1_34" depart="85.0" departLane="random" departSpeed="10" />
    <vehicle id="198" type="standard_car" route="r_0_2_2" depart="85.0" departLane="random" departSpeed="10" />
    <vehicle id="199" type="standard_car" route="r_1_2_22" depart="85.0" departLane="random" departSpeed="10" />
    <vehicle id="200" type="standard_car" route="r_3_1_48" depart="86.0" departLane="random" departSpeed="10" />
    <vehicle id="201" type="standard_car" route="r_2_1_34" depart="86.0" departLane="random" departSpeed="10" />
    <vehicle id="202" type="standard_car" route="r_3_1_48" depart="87.0" departLane="random" departSpeed="10" />
    <vehicle id="203" type="standard_car" route="r_4_0_52" depart="87.0" departLane="random" departSpeed="10" />
    <vehicle id="204" type="standard_car" route="r_1_1_16" depart="87.0" departLane="random" departSpeed="10" />
    <vehicle id="205" type="standard_car" route="r_2_1_30" depart="87.0" departLane="random" departSpeed="10" />
    <vehicle id="206" type="standard_car" route="r_3_1_46" depart="87.0" departLane="random" departSpeed="10" />
    <vehicle id="207" type="standard_car" route="r_2_1_33" depart="88.0" departLane="random" departSpeed="10" />
    <vehicle id="208" type="standard_car" route="r_1_1_17" depart="88.0" departLane="random" departSpeed="10" />
    <vehicle id="209" type="standard_car" route="r_1_0_7" depart="89.0" departLane="random" departSpeed="10" />
    <vehicle id="210" type="standard_car" route="r_3_1_44" depart="89.0" departLane="random" departSpeed="10" />
    <vehicle id="211" type="standard_car" route="r_1_1_17" depart="90.0" departLane="random" departSpeed="10" />
    <vehicle id="212" type="standard_car" route="r_1_0_4" depart="91.0" departLane="random" departSpeed="10" />
    <vehicle id="213" type="standard_car" route="r_1_0_7" depart="92.0" departLane="random" departSpeed="10" />
    <vehicle id="214" type="standard_car" route="r_2_2_39" depart="92.0" departLane="random" departSpeed="10" />
    <vehicle id="215" type="standard_car" route="r_2_1_34" depart="93.0" departLane="random" departSpeed="10" />
    <vehicle id="216" type="standard_car" route="r_3_1_48" depart="94.0" departLane="random" departSpeed="10" />
    <vehicle id="217" type="standard_car" route="r_3_1_49" depart="94.0" departLane="random" departSpeed="10" />
    <vehicle id="218" type="standard_car" route="r_2_0_24" depart="94.0" departLane="random" departSpeed="10" />
    <vehicle id="219" type="standard_car" route="r_4_0_52" depart="94.0" departLane="random" departSpeed="10" />
    <vehicle id="220" type="standard_car" route="r_1_2_20" depart="94.0" departLane="random" departSpeed="10" />
    <vehicle id="221" type="standard_car" route="r_1_2_23" depart="94.0" departLane="random" departSpeed="10" />
    <vehicle id="222" type="standard_car" route="r_1_2_20" depart="94.0" departLane="random" departSpeed="10" />
    <vehicle id="223" type="standard_car" route="r_0_2_3" depart="95.0" departLane="random" departSpeed="10" />
    <vehicle id="224" type="standard_car" route="r_2_2_39" depart="95.0" departLane="random" departSpeed="10" />
    <vehicle id="225" type="standard_car" route="r_1_0_10" depart="95.0" departLane="random" departSpeed="10" />
    <vehicle id="226" type="standard_car" route="r_1_0_4" depart="95.0" departLane="random" departSpeed="10" />
    <vehicle id="227" type="standard_car" route="r_3_1_45" depart="97.0" departLane="random" departSpeed="10" />
    <vehicle id="228" type="standard_car" route="r_3_1_44" depart="97.0" departLane="random" departSpeed="10" />
    <vehicle id="229" type="standard_car" route="r_3_1_47" depart="100.0" departLane="random" departSpeed="10" />
    <vehicle id="230" type="standard_car" route="r_0_2_2" depart="100.0" departLane="random" departSpeed="10" />