<routes>
            <vType accel="1.0" decel="4.5" id="standard_car" length="5.0" minGap="2.5" maxSpeed="25" sigma="0.5" />

            <route id="r_0_2_0" edges="N1_L_N1 N1_N2 N2_N2_R"/>
            <route id="r_0_2_1" edges="N2_D_N2 N2_N3 N3_N3_U"/>
            <route id="r_0_2_2" edges="N3_U_N3 N3_N2 N2_N2_D"/>
            <route id="r_0_2_3" edges="N4_U_N4 N4_N1 N1_N1_D"/>
            <route id="r_1_0_4" edges="N1_D_N1 N1_N1_L"/>
            <route id="r_1_0_5" edges="N1_L_N1 N1_N1_D"/>
            <route id="r_1_0_6" edges="N2_D_N2 N2_N2_R"/>
            <route id="r_1_0_7" edges="N2_R_N2 N2_N2_D"/>
            <route id="r_1_0_8" edges="N3_R_N3 N3_N3_U"/>
            <route id="r_1_0_9" edges="N3_U_N3 N3_N3_R"/>
            <route id="r_1_0_10" edges="N4_L_N4 N4_N4_U"/>
            <route id="r_1_0_11" edges="N4_U_N4 N4_N4_L"/>
            <route id="r_1_1_12" edges="N1_D_N1 N1_N2 N2_N2_R"/>
            <route id="r_1_1_13" edges="N1_L_N1 N1_N2 N2_N2_D"/>
            <route id="r_1_1_14" edges="N2_D_N2 N2_N3 N3_N3_R"/>
            <route id="r_1_1_15" edges="N2_R_N2 N2_N3 N3_N3_U"/>
            <route id="r_1_1_16" edges="N3_R_N3 N3_N2 N2_N2_D"/>
            <route id="r_1_1_17" edges="N3_U_N3 N3_N2 N2_N2_R"/>
            <route id="r_1_1_18" edges="N4_L_N4 N4_N1 N1_N1_D"/>
            <route id="r_1_1_19" edges="N4_U_N4 N4_N1 N1_N1_L"/>
            <route id="r_1_2_20" edges="N1_L_N1 N1_N2 N2_N3 N3_N3_U"/>
            <route id="r_1_2_21" edges="N2_D_N2 N2_N3 N3_N4 N4_N4_L"/>
            <route id="r_1_2_22" edges="N3_U_N3 N3_N2 N2_N1 N1_N1_L"/>
            <route id="r_1_2_23" edges="N4_U_N4 N4_N1 N1_N2 N2_N2_R"/>
            <route id="r_2_0_24" edges="N1_D_N1 N1_N2 N2_N2_D"/>
            <route id="r_2_0_25" edges="N2_R_N2 N2_N3 N3_N3_R"/>
            <route id="r_2_0_26" edges="N3_R_N3 N3_N2 N2_N2_R"/>
            <route id="r_2_0_27" edges="N4_L_N4 N4_N1 N1_N1_L"/>
            <route id="r_2_1_28" edges="N1_D_N1 N1_N2 N2_N3 N3_N3_U"/>
            <route id="r_2_1_29" edges="N1_L_N1 N1_N2 N2_N3 N3_N3_R"/>
            <route id="r_2_1_30" edges="N2_D_N2 N2_N3 N3_N4 N4_N4_U"/>
            <route id="r_2_1_31" edges="N2_R_N2 N2_N3 N3_N4 N4_N4_L"/>
            <route id="r_2_1_32" edges="N3_R_N3 N3_N2 N2_N1 N1_N1_L"/>
            <route id="r_2_1_33" edges="N3_U_N3 N3_N2 N2_N1 N1_N1_D"/>
            <route id="r_2_1_34" edges="N4_L_N4 N4_N1 N1_N2 N2_N2_R"/>
            <route id="r_2_1_35" edges="N4_U_N4 N4_N1 N1_N2 N2_N2_D"/>
            <route id="r_2_2_36" edges="N1_L_N1 N1_N2 N2_N3 N3_N4 N4_N4_L"/>
            <route id="r_2_2_37" edges="N2_D_N2 N2_N3 N3_N4 N4_N1 N1_N1_D"/>
            <route id="r_2_2_38" edges="N3_U_N3 N3_N2 N2_N1 N1_N4 N4_N4_U"/>
            <route id="r_2_2_39" edges="N4_U_N4 N4_N1 N1_N2 N2_N3 N3_N3_U"/>
            <route id="r_3_0_40" edges="N1_D_N1 N1_N2 N2_N3 N3_N3_R"/>
            <route id="r_3_0_41" edges="N2_R_N2 N2_N3 N3_N4 N4_N4_U"/>
            <route id="r_3_0_42" edges="N3_R_N3 N3_N2 N2_N1 N1_N1_D"/>
            <route id="r_3_0_43" edges="N4_L_N4 N4_N1 N1_N2 N2_N2_D"/>
            <route id="r_3_1_44" edges="N1_D_N1 N1_N2 N2_N3 N3_N4 N4_N4_L"/>
            <route id="r_3_1_45" edges="N1_L_N1 N1_N2 N2_N3 N3_N4 N4_N4_U"/>
            <route id="r_3_1_46" edges="N2_D_N2 N2_N3 N3_N4 N4_N1 N1_N1_L"/>
            <route id="r_3_1_47" edges="N2_R_N2 N2_N3 N3_N4 N4_N1 N1_N1_D"/>
            <route id="r_3_1_48" edges="N3_R_N3 N3_N2 N2_N1 N1_N4 N4_N4_U"/>
            <route id="r_3_1_49" edges="N3_U_N3 N3_N2 N2_N1 N1_N4 N4_N4_L"/>
            <route id="r_3_1_50" edges="N4_L_N4 N4_N1 N1_N2 N2_N3 N3_N3_U"/>
            <route id="r_3_1_51" edges="N4_U_N4 N4_N1 N1_N2 N2_N3 N3_N3_R"/>
            <route id="r_4_0_52" edges="N1_D_N1 N1_N2 N2_N3 N3_N4 N4_N4_U"/>
            <route id="r_4_0_53" edges="N2_R_N2 N2_N3 N3_N4 N4_N1 N1_N1_L"/>
            <route id="r_4_0_54" edges="N3_R_N3 N3_N2 N2_N1 N1_N4 N4_N4_L"/>
            <route id="r_4_0_55" edges="N4_L_N4 N4_N1 N1_N2 N2_N3 N3_N3_R"/>
    <vehicle id="0" type="standard_car" route="r_3_1_45" depart="44.0" departLane="random" departSpeed="10" />
    <vehicle id="1" type="standard_car" route="r_0_2_3" depart="56.0" departLane="random" departSpeed="10" />
    <vehicle id="2" type="standard_car" route="r_2_0_24" depart="81.0" departLane="random" departSpeed="10" />
    <vehicle id="3" type="standard_car" route="r_2_1_32" depart="82.0" departLane="random" departSpeed="10" />
    <vehicle id="4" type="standard_car" route="r_1_1_15" depart="85.0" departLane="random" departSpeed="10" />
    <vehicle id="5" type="standard_car" route="r_1_0_7" depart="122.0" departLane="random" departSpeed="10" />
    <vehicle id="6" type="standard_car" route="r_1_0_11" depart="129.0" departLane="random" departSpeed="10" />
    <vehicle id="7" type="standard_car" route="r_4_0_54" depart="133.0" departLane="random" departSpeed="10" />
    <vehicle id="8" type="standard_car" route="r_3_1_49" depart="145.0" departLane="random" departSpeed="10" />
    <vehicle id="9" type="standard_car" route="r_0_2_1" depart="146.0" departLane="random" departSpeed="10" />
    <vehicle id="10" type="standard_car" route="r_0_2_3" depart="154.0" departLane="random" departSpeed="10" />
    <vehicle id="11" type="standard_car" route="r_1_0_9" depart="154.0" departLane="random" departSpeed="10" />
    <vehicle id="12" type="standard_car" route="r_2_0_27" depart="157.0" departLane="random" departSpeed="10" />
    <vehicle id="13" type="standard_car" route="r_2_1_34" depart="159.0" departLane="random" departSpeed="10" />
    <vehicle id="14" type="standard_car" route="r_3_1_45" depart="159.0" departLane="random" departSpeed="10" />
    <vehicle id="15" type="standard_car" route="r_2_1_31" depart="161.0" departLane="random" departSpeed="10" />
    <vehicle id="16" type="standard_car" route="r_3_0_40" depart="165.0" departLane="random" departSpeed="10" />
    <vehicle id="17" type="standard_car" route="r_2_1_35" depart="173.0" departLane="random" departSpeed="10" />
    <vehicle id="18" type="standard_car" route="r_3_1_49" depart="179.0" departLane="random" departSpeed="10" />
    <vehicle id="19" type="standard_car" route="r_1_0_6" depart="187.0" departLane="random" departSpeed="10" />
    <vehicle id="20" type="standard_car" route="r_3_1_47" depart="188.0" departLane="random" departSpeed="10" />
    <vehicle id="21" type="standard_car" route="r_3_1_50" depart="219.0" departLane="random" departSpeed="10" />
    <vehicle id="22" type="standard_car" route="r_3_1_44" depart="221.0" departLane="random" departSpeed="10" />
    <vehicle id="23" type="standard_car" route="r_3_0_41" depart="230.0" departLane="random" departSpeed="10" />
    <vehicle id="24" type="standard_car" route="r_2_0_25" depart="231.0" departLane="random" departSpeed="10" />
    <vehicle id="25" type="standard_car" route="r_3_0_41" depart="236.0" departLane="random" departSpeed="10" />
    <vehicle id="26" type="standard_car" route="r_2_1_30" depart="237.0" departLane="random" departSpeed="10" />
    <vehicle id="27" type="standard_car" route="r_3_1_47" depart="261.0" departLane="random" departSpeed="10" />
    <vehicle id="28" type="standard_car" route="r_3_0_40" depart="264.0" departLane="random" departSpeed="10" />
    <vehicle id="29" type="standard_car" route="r_3_1_49" depart="272.0" departLane="random" departSpeed="10" />
    <vehicle id="30" type="standard_car" route="r_1_0_10" depart="272.0" departLane="random" departSpeed="10" />
    <vehicle id="31" type="standard_car" route="r_1_1_12" depart="276.0" departLane="random" departSpeed="10" />
    <vehicle id="32" type="standard_car" route="r_2_0_25" depart="277.0" departLane="random" departSpeed="10" />
    <vehicle id="33" type="standard_car" route="r_2_1_34" depart="279.0" departLane="random" departSpeed="10" />
    <vehicle id="34" type="standard_car" route="r_1_0_7" depart="287.0" departLane="random" departSpeed="10" />
    <vehicle id="35" type="standard_car" route="r_3_0_40" depart="289.0" departLane="random" departSpeed="10" />
    <vehicle id="36" type="standard_car" route="r_1_2_20" depart="300.0" departLane="random" departSpeed="10" />
    <vehicle id="37" type="standard_car" route="r_3_1_47" depart="303.0" departLane="random" departSpeed="10" />
    <vehicle id="38" type="standard_car" route="r_1_2_21" depart="303.0" departLane="random" departSpeed="10" />
    <vehicle id="39" type="standard_car" route="r_1_1_13" depart="306.0" departLane="random" departSpeed="10" />
    <vehicle id="40" type="standard_car" route="r_3_0_41" depart="307.0" departLane="random" departSpeed="10" />
    <vehicle id="41" type="standard_car" route="r_1_2_22" depart="309.0" departLane="random" departSpeed="10" />
    <vehicle id="42" type="standard_car" route="r_1_1_14" depart="309.0" departLane="random" departSpeed="10" />
    <vehicle id="43" type="standard_car" route="r_1_0_11" depart="310.0" departLane="random" departSpeed="10" />
    <vehicle id="44" type="standard_car" route="r_0_2_3" depart="313.0" departLane="random" departSpeed="10" />
    <vehicle id="45" type="standard_car" route="r_1_2_21" depart="314.0" departLane="random" departSpeed="10" />
    <vehicle id="46" type="standard_car" route="r_1_1_18" depart="330.0" departLane="random" departSpeed="10" />
    <vehicle id="47" type="standard_car" route="r_1_1_13" depart="337.0" departLane="random" departSpeed="10" />
    <vehicle id="48" type="standard_car" route="r_1_0_10" depart="342.0" departLane="random" departSpeed="10" />
    <vehicle id="49" type="standard_car" route="r_2_2_36" depart="345.0" departLane="random" departSpeed="10" />
    <vehicle id="50" type="standard_car" route="r_3_1_45" depart="345.0" departLane="random" departSpeed="10" />
    <vehicle id="51" type="standard_car" route="r_2_2_38" depart="350.0" departLane="random" departSpeed="10" />
    <vehicle id="52" type="standard_car" route="r_3_1_47" depart="354.0" departLane="random" departSpeed="10" />
    <vehicle id="53" type="standard_car" route="r_2_2_39" depart="355.0" departLane="random" departSpeed="10" />
    <vehicle id="54" type="standard_car" route="r_3_1_45" depart="355.0" departLane="random" departSpeed="10" />
    <vehicle id="55" type="standard_car" route="r_2_1_29" depart="360.0" departLane="random" departSpeed="10" />
    <vehicle id="56" type="standard_car" route="r_1_2_22" depart="360.0" departLane="random" departSpeed="10" />
    <vehicle id="57" type="standard_car" route="r_1_2_22" depart="362.0" departLane="random" departSpeed="10" />
    <vehicle id="58" type="standard_car" route="r_2_1_35" depart="362.0" departLane="random" departSpeed="10" />
    <vehicle id="59" type="standard_car" route="r_1_0_10" depart="364.0" departLane="random" departSpeed="10" />
    <vehicle id="60" type="standard_car" route="r_1_1_18" depart="374.0" departLane="random" departSpeed="10" />
    <vehicle id="61" type="standard_car" route="r_1_1_17" depart="377.0" departLane="random" departSpeed="10" />
    <vehicle id="62" type="standard_car" route="r_3_1_47" depart="378.0" departLane="random" departSpeed="10" />
    <vehicle id="63" type="standard_car" route="r_2_2_36" depart="379.0" departLane="random" departSpeed="10" />
    <vehicle id="64" type="standard_car" route="r_1_2_22" depart="381.0" departLane="random" departSpeed="10" />
    <vehicle id="65" type="standard_car" route="r_2_0_26" depart="393.0" departLane="random" departSpeed="10" />
    <vehicle id="66" type="standard_car" route="r_1_0_10" depart="395.0" departLane="random" departSpeed="10" />
    <vehicle id="67" type="standard_car" route="r_1_1_19" depart="397.0" departLane="random" departSpeed="10" />
    <vehicle id="68" type="standard_car" route="r_4_0_53" depart="397.0" departLane="random" departSpeed="10" />
    <vehicle id="69" type="standard_car" route="r_4_0_55" depart="401.0" departLane="random" departSpeed="10" />
    <vehicle id="70" type="standard_car" route="r_2_1_35" depart="404.0" departLane="random" departSpeed="10" />
    <vehicle id="71" type="standard_car" route="r_1_1_18" depart="411.0" departLane="random" departSpeed="10" />
    <vehicle id="72" type="standard_car" route="r_3_0_43" depart="422.0" departLane="random" departSpeed="10" />
    <vehicle id="73" type="standard_car" route="r_3_0_40" depart="424.0" departLane="random" departSpeed="10" />
    <vehicle id="74" type="standard_car" route="r_1_2_22" depart="425.0" departLane="random" departSpeed="10" />
    <vehicle id="75" type="standard_car" route="r_1_1_16" depart="427.0" departLane="random" departSpeed="10" />
    <vehicle id="76" type="standard_car" route="r_1_2_23" depart="429.0" departLane="random" departSpeed="10" />
    <vehicle id="77" type="standard_car" route="r_2_1_33" depart="429.0" departLane="random" departSpeed="10" />
    <vehicle id="78" type="standard_car" route="r_2_2_39" depart="431.0" departLane="random" departSpeed="10" />
    <vehicle id="79" type="standard_car" route="r_4_0_53" depart="440.0" departLane="random" departSpeed="10" />
    <vehicle id="80" type="standard_car" route="r_2_1_33" depart="441.0" departLane="random" departSpeed="10" />
    <vehicle id="81" type="standard_car" route="r_2_2_39" depart="442.0" departLane="random" departSpeed="10" />
    <vehicle id="82" type="standard_car" route="r_2_1_32" depart="446.0" departLane="random" departSpeed="10" />
    <vehicle id="83" type="standard_car" route="r_3_1_50" depart="450.0" departLane="random" departSpeed="10" />
    <vehicle id="84" type="standard_car" route="r_3_0_40" depart="451.0" departLane="random" departSpeed="10" />
    <vehicle id="85" type="standard_car" route="r_2_1_32" depart="458.0" departLane="random" departSpeed="10" />
    <vehicle id="86" type="standard_car" route="r_2_0_27" depart="461.0" departLane="random" departSpeed="10" />
    <vehicle id="87" type="standard_car" route="r_1_0_8" depart="467.0" departLane="random" departSpeed="10" />
    <vehicle id="88" type="standard_car" route="r_2_1_31" depart="467.0" departLane="random" departSpeed="10" />
    <vehicle id="89" type="standard_car" route="r_1_0_9" depart="468.0" departLane="random" departSpeed="10" />
    <vehicle id="90" type="standard_car" route="r_2_1_31" depart="472.0" departLane="random" departSpeed="10" />
    <vehicle id="91" type="standard_car" route="r_1_0_5" depart="474.0" departLane="random" departSpeed="10" />
    <vehicle id="92" type="standard_car" route="r_1_1_14" depart="480.0" departLane="random" departSpeed="10" />
    <vehicle id="93" type="standard_car" route="r_4_0_54" depart="480.0" departLane="random" departSpeed="10" />
    <vehicle id="94" type="standard_car" route="r_1_1_18" depart="486.0" departLane="random" departSpeed="10" />
    <vehicle id="95" type="standard_car" route="r_1_0_9" depart="488.0" departLane="random" departSpeed="10" />
    <vehicle id="96" type="standard_car" route="r_3_1_49" depart="491.0" departLane="random" departSpeed="10" />
    <vehicle id="97" type="standard_car" route="r_1_2_22" depart="500.0" departLane="random" departSpeed="10" />
    <vehicle id="98" type="standard_car" route="r_2_2_37" depart="502.0" departLane="random" departSpeed="10" />
    <vehicle id="99" type="standard_car" route="r_1_2_20" depart="503.0" departLane="random" departSpeed="10" />
    <vehicle id="100" type="standard_car" route="r_3_1_49" depart="506.0" departLane="random" departSpeed="10" />
    <vehicle id="101" type="standard_car" route="r_2_1_34" depart="509.0" departLane="random" departSpeed="10" />
    <vehicle id="102" type="standard_car" route="r_3_0_42" depart="513.0" departLane="random" departSpeed="10" />
    <vehicle id="103" type="standard_car" route="r_1_2_20" depart="515.0" departLane="random" departSpeed="10" />
    <vehicle id="104" type="standard_car" route="r_2_1_29" depart="518.0" departLane="random" departSpeed="10" />
    <vehicle id="105" type="standard_car" route="r_1_2_21" depart="520.0" departLane="random" departSpeed="10" />
    <vehicle id="106" type="standard_car" route="r_2_0_27" depart="521.0" departLane="random" departSpeed="10" />
    <vehicle id="107" type="standard_car" route="r_4_0_52" depart="522.0" departLane="random" departSpeed="10" />
    <vehicle id="108" type="standard_car" route="r_2_1_35" depart="528.0" departLane="random" departSpeed="10" />
    <vehicle id="109" type="standard_car" route="r_3_0_42" depart="531.0" departLane="random" departSpeed="10" />
    <vehicle id="110" type="standard_car" route="r_3_0_41" depart="543.0" departLane="random" departSpeed="10" />
    <vehicle id="111" type="standard_car" route="r_1_0_9" depart="543.0" departLane="random" departSpeed="10" />
    <vehicle id="112" type="standard_car" route="r_2_1_34" depart="547.0" departLane="random" departSpeed="10" />
    <vehicle id="113" type="standard_car" route="r_1_0_11" depart="548.0" departLane="random" departSpeed="10" />
    <vehicle id="114" type="standard_car" route="r_3_1_45" depart="549.0" departLane="random" departSpeed="10" />
    <vehicle id="115" type="standard_car" route="r_1_2_22" depart="553.0" departLane="random" departSpeed="10" />
    <vehicle id="116" type="standard_car" route="r_1_1_16" depart="554.0" departLane="random" departSpeed="10" />
    <vehicle id="117" type="standard_car" route="r_1_0_5" depart="559.0" departLane="random" departSpeed="10" />
    <vehicle id="118" type="standard_car" route="r_2_0_26" depart="559.0" departLane="random" departSpeed="10" />
    <vehicle id="119" type="standard_car" route="r_1_0_10" depart="559.0" departLane="random" departSpeed="10" />
    <vehicle id="120" type="standard_car" route="r_1_0_9" depart="568.0" departLane="random" departSpeed="10" />
    <vehicle id="121" type="standard_car" route="r_1_2_21" depart="578.0" departLane="random" departSpeed="10" />
    <vehicle id="122" type="standard_car" route="r_2_0_26" depart="585.0" departLane="random" departSpeed="10" />
    <vehicle id="123" type="standard_car" route="r_1_1_12" depart="587.0" departLane="random" departSpeed="10" />
    <vehicle id="124" type="standard_car" route="r_1_2_22" depart="587.0" departLane="random" departSpeed="10" />
    <vehicle id="125" type="standard_car" route="r_4_0_54" depart="589.0" departLane="random" departSpeed="10" />
    <vehicle id="126" type="standard_car" route="r_2_1_32" depart="596.0" departLane="random" departSpeed="10" />
    <vehicle id="127" type="standard_car" route="r_2_1_33" depart="600.0" departLane="random" departSpeed="10" />
    <vehicle id="128" type="standard_car" route="r_0_2_1" depart="605.0" departLane="random" departSpeed="10" />
    <vehicle id="129" type="standard_car" route="r_1_2_23" depart="611.0" departLane="random" departSpeed="10" />
    <vehicle id="130" type="standard_car" route="r_0_2_3" depart="613.0" departLane="random" departSpeed="10" />
    <vehicle id="131" type="standard_car" route="r_2_0_27" depart="620.0" departLane="random" departSpeed="10" />
    <vehicle id="132" type="standard_car" route="r_1_1_14" depart="624.0" departLane="random" departSpeed="10" />
    <vehicle id="133" type="standard_car" route="r_1_1_12" depart="630.0" departLane="random" departSpeed="10" />
    <vehicle id="134" type="standard_car" route="r_2_1_34" depart="630.0" departLane="random" departSpeed="10" />
    <vehicle id="135" type="standard_car" route="r_4_0_54" depart="631.0" departLane="random" departSpeed="10" />
    <vehicle id="136" type="standard_car" route="r_3_0_41" depart="631.0" departLane="random" departSpeed="10" />
    <vehicle id="137" type="standard_car" route="r_3_0_40" depart="632.0" departLane="random" departSpeed="10" />
    <vehicle id="138" type="standard_car" route="r_2_2_38" depart="633.0" departLane="random" departSpeed="10" />
    <vehicle id="139" type="standard_car" route="r_1_1_12" depart="641.0" departLane="random" departSpeed="10" />
    <vehicle id="140" type="standard_car" route="r_0_2_3" depart="643.0" departLane="random" departSpeed="10" />
    <vehicle id="141" type="standard_car" route="r_2_1_32" depart="644.0" departLane="random" departSpeed="10" />
    <vehicle id="142" type="standard_car" route="r_1_0_11" depart="645.0" departLane="random" departSpeed="10" />
    <vehicle id="143" type="standard_car" route="r_1_1_17" depart="651.0" departLane="random" departSpeed="10" />
    <vehicle id="144" type="standard_car" route="r_3_1_47" depart="657.0" departLane="random" departSpeed="10" />
    <vehicle id="145" type="standard_car" route="r_3_0_40" depart="658.0" departLane="random" departSpeed="10" />
    <vehicle id="146" type="standard_car" route="r_3_0_41" depart="659.0" departLane="random" departSpeed="10" />
    <vehicle id="147" type="standard_car" route="r_1_2_23" depart="660.0" departLane="random" departSpeed="10" />
    <vehicle id="148" type="standard_car" route="r_3_1_50" depart="661.0" departLane="random" departSpeed="10" />
    <vehicle id="149" type="standard_car" route="r_1_2_21" depart="662.0" departLane="random" departSpeed="10" />
    <vehicle id="150" type="standard_car" route="r_1_0_4" depart="662.0" departLane="random" departSpeed="10" />
    <vehicle id="151" type="standard_car" route="r_1_0_4" depart="664.0" departLane="random" departSpeed="10" />
    <vehicle id="152" type="standard_car" route="r_2_1_30" depart="666.0" departLane="random" departSpeed="10" />
    <vehicle id="153" type="standard_car" route="r_1_0_4" depart="668.0" departLane="random" departSpeed="10" />
    <vehicle id="154" type="standard_car" route="r_2_1_30" depart="671.0" departLane="random" departSpeed="10" />
    <vehicle id="155" type="standard_car" route="r_0_2_3" depart="672.0" departLane="random" departSpeed="10" />
    <vehicle id="156" type="standard_car" route="r_3_0_42" depart="683.0" departLane="random" departSpeed="10" />
    <vehicle id="157" type="standard_car" route="r_2_1_28" depart="686.0" departLane="random" departSpeed="10" />
    <vehicle id="158" type="standard_car" route="r_3_1_44" depart="686.0" departLane="random" departSpeed="10" />
    <vehicle id="159" type="standard_car" route="r_2_1_30" depart="687.0" departLane="random" departSpeed="10" />
    <vehicle id="160" type="standard_car" route="r_3_0_41" depart="692.0" departLane="random" departSpeed="10" />
    <vehicle id="161" type="standard_car" route="r_1_1_17" depart="701.0" departLane="random" departSpeed="10" />
    <vehicle id="162" type="standard_car" route="r_2_0_27" depart="705.0" departLane="random" departSpeed="10" />
    <vehicle id="163" type="standard_car" route="r_3_0_40" depart="711.0" departLane="random" departSpeed="10" />
    <vehicle id="164" type="standard_car" route="r_1_1_18" depart="713.0" departLane="random" departSpeed="10" />
    <vehicle id="165" type="standard_car" route="r_2_0_26" depart="714.0" departLane="random" departSpeed="10" />
    <vehicle id="166" type="standard_car" route="r_1_2_20" depart="714.0" departLane="random" departSpeed="10" />
    <vehicle id="167" type="standard_car" route="r_3_0_41" depart="715.0" departLane="random" departSpeed="10" />
    <vehicle id="168" type="standard_car" route="r_1_1_15" depart="718.0" departLane="random" departSpeed="10" />
    <vehicle id="169" type="standard_car" route="r_2_1_30" depart="721.0" departLane="random" departSpeed="10" />
    <vehicle id="170" type="standard_car" route="r_2_1_28" depart="725.0" departLane="random" departSpeed="10" />
    <vehicle id="171" type="standard_car" route="r_2_0_25" depart="726.0" departLane="random" departSpeed="10" />
    <vehicle id="172" type="standard_car" route="r_0_2_1" depart="729.0" departLane="random" departSpeed="10" />
    <vehicle id="173" type="standard_car" route="r_0_2_3" depart="738.0" departLane="random" departSpeed="10" />
    <vehicle id="174" type="standard_car" route="r_2_1_30" depart="741.0" departLane="random" departSpeed="10" />
    <vehicle id="175" type="standard_car" route="r_3_0_43" depart="744.0" departLane="random" departSpeed="10" />
    <vehicle id="176" type="standard_car" route="r_1_0_6" depart="745.0" departLane="random" departSpeed="10" />
    <vehicle id="177" type="standard_car" route="r_1_0_6" depart="749.0" departLane="random" departSpeed="10" />
    <vehicle id="178" type="standard_car" route="r_0_2_1" depart="750.0" departLane="random" departSpeed="10" />
    <vehicle id="179" type="standard_car" route="r_1_0_5" depart="755.0" departLane="random" departSpeed="10" />
    <vehicle id="180" type="standard_car" route="r_1_2_20" depart="757.0" departLane="random" departSpeed="10" />
    <vehicle id="181" type="standard_car" route="r_1_0_9" depart="765.0" departLane="random" departSpeed="10" />
    <vehicle id="182" type="standard_car" route="r_2_0_26" depart="768.0" departLane="random" departSpeed="10" />
    <vehicle id="183" type="standard_car" route="r_2_0_25" depart="770.0" departLane="random" departSpeed="10" />
    <vehicle id="184" type="standard_car" route="r_1_0_4" depart="777.0" departLane="random" departSpeed="10" />
    <vehicle id="185" type="standard_car" route="r_3_1_49" depart="782.0" departLane="random" departSpeed="10" />
    <vehicle id="186" type="standard_car" route="r_0_2_0" depart="800.0" departLane="random" departSpeed="10" />
    <vehicle id="187" type="standard_car" route="r_2_2_38" depart="806.0" departLane="random" departSpeed="10" />
    <vehicle id="188" type="standard_car" route="r_1_1_18" depart="808.0" departLane="random" departSpeed="10" />
    <vehicle id="189" type="standard_car" route="r_3_1_46" depart="809.0" departLane="random" departSpeed="10" />
    <vehicle id="190" type="standard_car" route="r_3_1_47" depart="814.0" departLane="random" departSpeed="10" />
    <vehicle id="191" type="standard_car" route="r_3_1_49" depart="816.0" departLane="random" departSpeed="10" />
    <vehicle id="192" type="standard_car" route="r_1_0_6" depart="819.0" departLane="random" departSpeed="10" />
    <vehicle id="193" type="standard_car" route="r_3_0_41" depart="819.0" departLane="random" departSpeed="10" />
    <vehicle id="194" type="standard_car" route="r_1_1_15" depart="829.0" departLane="random" departSpeed="10" />
    <vehicle id="195" type="standard_car" route="r_1_2_21" depart="836.0" departLane="random" departSpeed="10" />
    <vehicle id="196" type="standard_car" route="r_0_2_3" depart="838.0" departLane="random" departSpeed="10" />
    <vehicle id="197" type="standard_car" route="r_1_0_4" depart="839.0" departLane="random" departSpeed="10" />
    <vehicle id="198" type="standard_car" route="r_1_0_9" depart="840.0" departLane="random" departSpeed="10" />
    <vehicle id="199" type="standard_car" route="r_1_2_22" depart="846.0" departLane="random" departSpeed="10" />
    <vehicle id="200" type="standard_car" route="r_1_1_12" depart="846.0" departLane="random" departSpeed="10" />
    <vehicle id="201" type="standard_car" route="r_3_1_50" depart="848.0" departLane="random" departSpeed="10" />
    <vehicle id="202" type="standard_car" route="r_1_0_10" depart="853.0" departLane="random" departSpeed="10" />
    <vehicle id="203" type="standard_car" route="r_4_0_54" depart="855.0" departLane="random" departSpeed="10" />
    <vehicle id="204" type="standard_car" route="r_1_1_18" depart="856.0" departLane="random" departSpeed="10" />
    <vehicle id="205" type="standard_car" route="r_2_2_36" depart="857.0" departLane="random" departSpeed="10" />
    <vehicle id="206" type="standard_car" route="r_1_0_4" depart="858.0" departLane="random" departSpeed="10" />
    <vehicle id="207" type="standard_car" route="r_1_1_17" depart="863.0" departLane="random" departSpeed="10" />
    <vehicle id="208" type="standard_car" route="r_3_1_46" depart="871.0" departLane="random" departSpeed="10" />
    <vehicle id="209" type="standard_car" route="r_2_2_37" depart="871.0" departLane="random" departSpeed="10" />
    <vehicle id="210" type="standard_car" route="r_1_1_19" depart="875.0" departLane="random" departSpeed="10" />
    <vehicle id="211" type="standard_car" route="r_2_1_32" depart="877.0" departLane="random" departSpeed="10" />
    <vehicle id="212" type="standard_car" route="r_1_0_9" depart="879.0" departLane="random" departSpeed="10" />
    <vehicle id="213" type="standard_car" route="r_3_1_50" depart="881.0" departLane="random" departSpeed="10" />
    <vehicle id="214" type="standard_car" route="r_3_0_40" depart="882.0" departLane="random" departSpeed="10" />
    <vehicle id="215" type="standard_car" route="r_1_1_18" depart="882.0" departLane="random" departSpeed="10" />
    <vehicle id="216" type="standard_car" route="r_0_2_1" depart="886.0" departLane="random" departSpeed="10" />
    <vehicle id="217" type="standard_car" route="r_2_2_36" depart="891.0" departLane="random" departSpeed="10" />
    <vehicle id="218" type="standard_car" route="r_0_2_1" depart="896.0" departLane="random" departSpeed="10" />
    <vehicle id="219" type="standard_car" route="r_4_0_54" depart="898.0" departLane="random" departSpeed="10" />
    <vehicle id="220" type="standard_car" route="r_0_2_2" depart="901.0" departLane="random" departSpeed="10" />
    <vehicle id="221" type="standard_car" route="r_2_1_34" depart="904.0" departLane="random" departSpeed="10" />
    <vehicle id="222" type="standard_car" route="r_1_1_14" depart="909.0" departLane="random" departSpeed="10" />
    <vehicle id="223" type="standard_car" route="r_1_0_4" depart="914.0" departLane="random" departSpeed="10" />
    <vehicle id="224" type="standard_car" route="r_1_0_6" depart="917.0" departLane="random" departSpeed="10" />
    <vehicle id="225" type="standard_car" route="r_1_1_19" depart="922.0" departLane="random" departSpeed="10" />
    <vehicle id="226" type="standard_car" route="r_2_1_35" depart="922.0" departLane="random" departSpeed="10" />
    <vehicle id="227" type="standard_car" route="r_3_1_45" depart="923.0" departLane="random" departSpeed="10" />
    <vehicle id="228" type="standard_car" route="r_2_0_27" depart="926.0" departLane="random" departSpeed="10" />