<routes>
            <vType accel="1.0" decel="4.5" id="standard_car" length="5.0" minGap="2.5" maxSpeed="25" sigma="0.5" />

            <route id="r_0_2_0" edges="N1_L_N1 N1_N2 N2_N2_R"/>
            <route id="r_0_2_1" edges="N2_D_N2 N2_N3 N3_N3_U"/>
            <route id="r_0_2_2" edges="N3_U_N3 N3_N2 N2_N2_D"/>
            <route id="r_0_2_3" edges="N4_U_N4 N4_N1 N1_N1_D"/>
            <route id="r_1_0_4" edges="N1_D_N1 N1_N1_L"/>
            <route id="r_1_0_5" edges="N1_L_N1 N1_N1_D"/>
            <route id="r_1_0_6" edges="N2_D_N2 N2_N2_R"/>
            <route id="r_1_0_7" edges="N2_R_N2 N2_N2_D"/>
            <route id="r_1_0_8" edges="N3_R_N3 N3_N3_U"/>
            <route id="r_1_0_9" edges="N3_U_N3 N3_N3_R"/>
            <route id="r_1_0_10" edges="N4_L_N4 N4_N4_U"/>
            <route id="r_1_0_11" edges="N4_U_N4 N4_N4_L"/>
            <route id="r_1_1_12" edges="N1_D_N1 N1_N2 N2_N2_R"/>
            <route id="r_1_1_13" edges="N1_L_N1 N1_N2 N2_N2_D"/>
            <route id="r_1_1_14" edges="N2_D_N2 N2_N3 N3_N3_R"/>
            <route id="r_1_1_15" edges="N2_R_N2 N2_N3 N3_N3_U"/>
            <route id="r_1_1_16" edges="N3_R_N3 N3_N2 N2_N2_D"/>
            <route id="r_1_1_17" edges="N3_U_N3 N3_N2 N2_N2_R"/>
            <route id="r_1_1_18" edges="N4_L_N4 N4_N1 N1_N1_D"/>
            <route id="r_1_1_19" edges="N4_U_N4 N4_N1 N1_N1_L"/>
            <route id="r_1_2_20" edges="N1_L_N1 N1_N2 N2_N3 N3_N3_U"/>
            <route id="r_1_2_21" edges="N2_D_N2 N2_N3 N3_N4 N4_N4_L"/>
            <route id="r_1_2_22" edges="N3_U_N3 N3_N2 N2_N1 N1_N1_L"/>
            <route id="r_1_2_23" edges="N4_U_N4 N4_N1 N1_N2 N2_N2_R"/>
            <route id="r_2_0_24" edges="N1_D_N1 N1_N2 N2_N2_D"/>
            <route id="r_2_0_25" edges="N2_R_N2 N2_N3 N3_N3_R"/>
            <route id="r_2_0_26" edges="N3_R_N3 N3_N2 N2_N2_R"/>
            <route id="r_2_0_27" edges="N4_L_N4 N4_N1 N1_N1_L"/>
            <route id="r_2_1_28" edges="N1_D_N1 N1_N2 N2_N3 N3_N3_U"/>
            <route id="r_2_1_29" edges="N1_L_N1 N1_N2 N2_N3 N3_N3_R"/>
            <route id="r_2_1_30" edges="N2_D_N2 N2_N3 N3_N4 N4_N4_U"/>
            <route id="r_2_1_31" edges="N2_R_N2 N2_N3 N3_N4 N4_N4_L"/>
            <route id="r_2_1_32" edges="N3_R_N3 N3_N2 N2_N1 N1_N1_L"/>
            <route id="r_2_1_33" edges="N3_U_N3 N3_N2 N2_N1 N1_N1_D"/>
            <route id="r_2_1_34" edges="N4_L_N4 N4_N1 N1_N2 N2_N2_R"/>
            <route id="r_2_1_35" edges="N4_U_N4 N4_N1 N1_N2 N2_N2_D"/>
            <route id="r_2_2_36" edges="N1_L_N1 N1_N2 N2_N3 N3_N4 N4_N4_L"/>
            <route id="r_2_2_37" edges="N2_D_N2 N2_N3 N3_N4 N4_N1 N1_N1_D"/>
            <route id="r_2_2_38" edges="N3_U_N3 N3_N2 N2_N1 N1_N4 N4_N4_U"/>
            <route id="r_2_2_39" edges="N4_U_N4 N4_N1 N1_N2 N2_N3 N3_N3_U"/>
            <route id="r_3_0_40" edges="N1_D_N1 N1_N2 N2_N3 N3_N3_R"/>
            <route id="r_3_0_41" edges="N2_R_N2 N2_N3 N3_N4 N4_N4_U"/>
            <route id="r_3_0_42" edges="N3_R_N3 N3_N2 N2_N1 N1_N1_D"/>
            <route id="r_3_0_43" edges="N4_L_N4 N4_N1 N1_N2 N2_N2_D"/>
            <route id="r_3_1_44" edges="N1_D_N1 N1_N2 N2_N3 N3_N4 N4_N4_L"/>
            <route id="r_3_1_45" edges="N1_L_N1 N1_N2 N2_N3 N3_N4 N4_N4_U"/>
            <route id="r_3_1_46" edges="N2_D_N2 N2_N3 N3_N4 N4_N1 N1_N1_L"/>
            <route id="r_3_1_47" edges="N2_R_N2 N2_N3 N3_N4 N4_N1 N1_N1_D"/>
            <route id="r_3_1_48" edges="N3_R_N3 N3_N2 N2_N1 N1_N4 N4_N4_U"/>
            <route id="r_3_1_49" edges="N3_U_N3 N3_N2 N2_N1 N1_N4 N4_N4_L"/>
            <route id="r_3_1_50" edges="N4_L_N4 N4_N1 N1_N2 N2_N3 N3_N3_U"/>
            <route id="r_3_1_51" edges="N4_U_N4 N4_N1 N1_N2 N2_N3 N3_N3_R"/>
            <route id="r_4_0_52" edges="N1_D_N1 N1_N2 N2_N3 N3_N4 N4_N4_U"/>
            <route id="r_4_0_53" edges="N2_R_N2 N2_N3 N3_N4 N4_N1 N1_N1_L"/>
            <route id="r_4_0_54" edges="N3_R_N3 N3_N2 N2_N1 N1_N4 N4_N4_L"/>
            <route id="r_4_0_55" edges="N4_L_N4 N4_N1 N1_N2 N2_N3 N3_N3_R"/>
    <vehicle id="0" type="standard_car" route="r_1_0_8" depart="55.0" departLane="random" departSpeed="10" />
    <vehicle id="1" type="standard_car" route="r_1_2_21" depart="74.0" departLane="random" departSpeed="10" />
    <vehicle id="2" type="standard_car" route="r_3_1_45" depart="81.0" departLane="random" departSpeed="10" />
    <vehicle id="3" type="standard_car" route="r_2_0_24" depart="92.0" departLane="random" departSpeed="10" />
    <vehicle id="4" type="standard_car" route="r_1_2_21" depart="99.0" departLane="random" departSpeed="10" />
    <vehicle id="5" type="standard_car" route="r_1_2_23" depart="128.0" departLane="random" departSpeed="10" />
    <vehicle id="6" type="standard_car" route="r_1_0_11" depart="129.0" departLane="random" departSpeed="10" />
    <vehicle id="7" type="standard_car" route="r_1_1_18" depart="130.0" departLane="random" departSpeed="10" />
    <vehicle id="8" type="standard_car" route="r_1_1_16" depart="133.0" departLane="random" departSpeed="10" />
    <vehicle id="9" type="standard_car" route="r_1_0_11" depart="141.0" departLane="random" departSpeed="10" />
    <vehicle id="10" type="standard_car" route="r_1_2_22" depart="143.0" departLane="random" departSpeed="10" />
    <vehicle id="11" type="standard_car" route="r_4_0_55" depart="165.0" departLane="random" departSpeed="10" />
    <vehicle id="12" type="standard_car" route="r_3_1_48" depart="167.0" departLane="random" departSpeed="10" />
    <vehicle id="13" type="standard_car" route="r_2_0_26" depart="168.0" departLane="random" departSpeed="10" />
    <vehicle id="14" type="standard_car" route="r_3_1_50" depart="169.0" departLane="random" departSpeed="10" />
    <vehicle id="15" type="standard_car" route="r_1_1_14" depart="173.0" departLane="random" departSpeed="10" />
    <vehicle id="16" type="standard_car" route="r_4_0_55" depart="179.0" departLane="random" departSpeed="10" />
    <vehicle id="17" type="standard_car" route="r_3_0_43" depart="185.0" departLane="random" departSpeed="10" />
    <vehicle id="18" type="standard_car" route="r_2_0_24" depart="208.0" departLane="random" departSpeed="10" />
    <vehicle id="19" type="standard_car" route="r_1_1_17" depart="208.0" departLane="random" departSpeed="10" />
    <vehicle id="20" type="standard_car" route="r_2_2_37" depart="211.0" departLane="random" departSpeed="10" />
    <vehicle id="21" type="standard_car" route="r_3_0_43" depart="221.0" departLane="random" departSpeed="10" />
    <vehicle id="22" type="standard_car" route="r_1_0_10" depart="230.0" departLane="random" departSpeed="10" />
    <vehicle id="23" type="standard_car" route="r_0_2_1" depart="230.0" departLane="random" departSpeed="10" />
    <vehicle id="24" type="standard_car" route="r_2_1_32" depart="234.0" departLane="random" departSpeed="10" />
    <vehicle id="25" type="standard_car" route="r_2_0_26" depart="242.0" departLane="random" departSpeed="10" />
    <vehicle id="26" type="standard_car" route="r_0_2_3" depart="242.0" departLane="random" departSpeed="10" />
    <vehicle id="27" type="standard_car" route="r_1_1_13" depart="242.0" departLane="random" departSpeed="10" />
    <vehicle id="28" type="standard_car" route="r_3_0_41" depart="253.0" departLane="random" departSpeed="10" />
    <vehicle id="29" type="standard_car" route="r_1_0_5" depart="255.0" departLane="random" departSpeed="10" />
    <vehicle id="30" type="standard_car" route="r_2_1_35" depart="262.0" departLane="random" departSpeed="10" />
    <vehicle id="31" type="standard_car" route="r_4_0_53" depart="263.0" departLane="random" departSpeed="10" />
    <vehicle id="32" type="standard_car" route="r_2_1_34" depart="269.0" departLane="random" departSpeed="10" />
    <vehicle id="33" type="standard_car" route="r_1_0_5" depart="269.0" departLane="random" departSpeed="10" />
    <vehicle id="34" type="standard_car" route="r_3_1_44" depart="274.0" departLane="random" departSpeed="10" />
    <vehicle id="35" type="standard_car" route="r_3_1_51" depart="277.0" departLane="random" departSpeed="10" />
    <vehicle id="36" type="standard_car" route="r_1_1_15" depart="286.0" departLane="random" departSpeed="10" />
    <vehicle id="37" type="standard_car" route="r_0_2_3" depart="293.0" departLane="random" departSpeed="10" />
    <vehicle id="38" type="standard_car" route="r_1_0_11" depart="295.0" departLane="random" departSpeed="10" />
    <vehicle id="39" type="standard_car" route="r_1_1_17" depart="300.0" departLane="random" departSpeed="10" />
    <vehicle id="40" type="standard_car" route="r_3_0_43" depart="303.0" departLane="random" departSpeed="10" />
    <vehicle id="41" type="standard_car" route="r_1_2_23" depart="304.0" departLane="random" departSpeed="10" />
    <vehicle id="42" type="standard_car" route="r_2_1_35" depart="336.0" departLane="random" departSpeed="10" />
    <vehicle id="43" type="standard_car" route="r_4_0_54" depart="337.0" departLane="random" departSpeed="10" />
    <vehicle id="44" type="standard_car" route="r_1_2_23" depart="339.0" departLane="random" departSpeed="10" />
    <vehicle id="45" type="standard_car" route="r_4_0_55" depart="339.0" departLane="random" departSpeed="10" />
    <vehicle id="46" type="standard_car" route="r_2_1_29" depart="344.0" departLane="random" departSpeed="10" />
    <vehicle id="47" type="standard_car" route="r_4_0_55" depart="346.0" departLane="random" departSpeed="10" />
    <vehicle id="48" type="standard_car" route="r_3_0_40" depart="352.0" departLane="random" departSpeed="10" />
    <vehicle id="49" type="standard_car" route="r_1_1_14" depart="352.0" departLane="random" departSpeed="10" />
    <vehicle id="50" type="standard_car" route="r_2_0_27" depart="353.0" departLane="random" departSpeed="10" />
    <vehicle id="51" type="standard_car" route="r_1_1_13" depart="355.0" departLane="random" departSpeed="10" />
    <vehicle id="52" type="standard_car" route="r_1_1_19" depart="358.0" departLane="random" departSpeed="10" />
    <vehicle id="53" type="standard_car" route="r_2_1_35" depart="361.0" departLane="random" departSpeed="10" />
    <vehicle id="54" type="standard_car" route="r_3_0_42" depart="364.0" departLane="random" departSpeed="10" />
    <vehicle id="55" type="standard_car" route="r_3_1_51" depart="364.0" departLane="random" departSpeed="10" />
    <vehicle id="56" type="standard_car" route="r_2_2_36" depart="376.0" departLane="random" departSpeed="10" />
    <vehicle id="57" type="standard_car" route="r_1_1_15" depart="377.0" departLane="random" departSpeed="10" />
    <vehicle id="58" type="standard_car" route="r_1_0_11" depart="379.0" departLane="random" departSpeed="10" />
    <vehicle id="59" type="standard_car" route="r_1_2_22" depart="380.0" departLane="random" departSpeed="10" />
    <vehicle id="60" type="standard_car" route="r_3_0_41" depart="383.0" departLane="random" departSpeed="10" />
    <vehicle id="61" type="standard_car" route="r_3_1_48" depart="384.0" departLane="random" departSpeed="10" />
    <vehicle id="62" type="standard_car" route="r_2_0_25" depart="385.0" departLane="random" departSpeed="10" />
    <vehicle id="63" type="standard_car" route="r_3_1_47" depart="387.0" departLane="random" departSpeed="10" />
    <vehicle id="64" type="standard_car" route="r_4_0_54" depart="393.0" departLane="random" departSpeed="10" />
    <vehicle id="65" type="standard_car" route="r_2_1_31" depart="394.0" departLane="random" departSpeed="10" />
    <vehicle id="66" type="standard_car" route="r_1_2_20" depart="396.0" departLane="random" departSpeed="10" />
    <vehicle id="67" type="standard_car" route="r_2_0_24" depart="398.0" departLane="random" departSpeed="10" />
    <vehicle id="68" type="standard_car" route="r_1_2_20" depart="399.0" departLane="random" departSpeed="10" />
    <vehicle id="69" type="standard_car" route="r_1_2_23" depart="400.0" departLane="random" departSpeed="10" />
    <vehicle id="70" type="standard_car" route="r_3_0_42" depart="400.0" departLane="random" departSpeed="10" />
    <vehicle id="71" type="standard_car" route="r_3_1_46" depart="405.0" departLane="random" departSpeed="10" />
    <vehicle id="72" type="standard_car" route="r_3_1_47" depart="408.0" departLane="random" departSpeed="10" />
    <vehicle id="73" type="standard_car" route="r_3_1_46" depart="409.0" departLane="random" departSpeed="10" />
    <vehicle id="74" type="standard_car" route="r_3_0_40" depart="411.0" departLane="random" departSpeed="10" />
    <vehicle id="75" type="standard_car" route="r_1_1_15" depart="425.0" departLane="random" departSpeed="10" />
    <vehicle id="76" type="standard_car" route="r_4_0_52" depart="425.0" departLane="random" departSpeed="10" />
    <vehicle id="77" type="standard_car" route="r_2_1_32" depart="426.0" departLane="random" departSpeed="10" />
    <vehicle id="78" type="standard_car" route="r_2_1_35" depart="438.0" departLane="random" departSpeed="10" />
    <vehicle id="79" type="standard_car" route="r_1_0_4" depart="439.0" departLane="random" departSpeed="10" />
    <vehicle id="80" type="standard_car" route="r_1_1_13" depart="440.0" departLane="random" departSpeed="10" />
    <vehicle id="81" type="standard_car" route="r_1_1_12" depart="443.0" departLane="random" departSpeed="10" />
    <vehicle id="82" type="standard_car" route="r_3_1_50" depart="446.0" departLane="random" departSpeed="10" />
    <vehicle id="83" type="standard_car" route="r_0_2_0" depart="448.0" departLane="random" departSpeed="10" />
    <vehicle id="84" type="standard_car" route="r_1_2_21" depart="453.0" departLane="random" departSpeed="10" />
    <vehicle id="85" type="standard_car" route="r_3_1_44" depart="462.0" departLane="random" departSpeed="10" />
    <vehicle id="86" type="standard_car" route="r_1_1_12" depart="462.0" departLane="random" departSpeed="10" />
    <vehicle id="87" type="standard_car" route="r_2_0_27" depart="464.0" departLane="random" departSpeed="10" />
    <vehicle id="88" type="standard_car" route="r_1_2_21" depart="469.0" departLane="random" departSpeed="10" />
    <vehicle id="89" type="standard_car" route="r_3_1_47" depart="471.0" departLane="random" departSpeed="10" />
    <vehicle id="90" type="standard_car" route="r_2_2_39" depart="473.0" departLane="random" departSpeed="10" />
    <vehicle id="91" type="standard_car" route="r_4_0_53" depart="474.0" departLane="random" departSpeed="10" />
    <vehicle id="92" type="standard_car" route="r_4_0_52" depart="477.0" departLane="random" departSpeed="10" />
    <vehicle id="93" type="standard_car" route="r_4_0_53" depart="490.0" departLane="random" departSpeed="10" />
    <vehicle id="94" type="standard_car" route="r_1_0_7" depart="500.0" departLane="random" departSpeed="10" />
    <vehicle id="95" type="standard_car" route="r_2_2_37" depart="500.0" departLane="random" departSpeed="10" />
    <vehicle id="96" type="standard_car" route="r_3_1_49" depart="507.0" departLane="random" departSpeed="10" />
    <vehicle id="97" type="standard_car" route="r_3_0_40" depart="507.0" departLane="random" departSpeed="10" />
    <vehicle id="98" type="standard_car" route="r_3_1_47" depart="508.0" departLane="random" departSpeed="10" />
    <vehicle id="99" type="standard_car" route="r_1_1_14" depart="517.0" departLane="random" departSpeed="10" />
    <vehicle id="100" type="standard_car" route="r_1_1_13" depart="522.0" departLane="random" departSpeed="10" />
    <vehicle id="101" type="standard_car" route="r_2_1_31" depart="522.0" departLane="random" departSpeed="10" />
    <vehicle id="102" type="standard_car" route="r_3_1_46" depart="524.0" departLane="random" departSpeed="10" />
    <vehicle id="103" type="standard_car" route="r_1_1_12" depart="525.0" departLane="random" departSpeed="10" />
    <vehicle id="104" type="standard_car" route="r_2_0_26" depart="526.0" departLane="random" departSpeed="10" />
    <vehicle id="105" type="standard_car" route="r_2_1_29" depart="528.0" departLane="random" departSpeed="10" />
    <vehicle id="106" type="standard_car" route="r_1_1_17" depart="531.0" departLane="random" departSpeed="10" />
    <vehicle id="107" type="standard_car" route="r_4_0_54" depart="532.0" departLane="random" departSpeed="10" />
    <vehicle id="108" type="standard_car" route="r_0_2_0" depart="540.0" departLane="random" departSpeed="10" />
    <vehicle id="109" type="standard_car" route="r_2_2_36" depart="552.0" departLane="random" departSpeed="10" />
    <vehicle id="110" type="standard_car" route="r_0_2_2" depart="554.0" departLane="random" departSpeed="10" />
    <vehicle id="111" type="standard_car" route="r_1_0_8" depart="560.0" departLane="random" departSpeed="10" />
    <vehicle id="112" type="standard_car" route="r_2_0_24" depart="560.0" departLane="random" departSpeed="10" />
    <vehicle id="113" type="standard_car" route="r_2_0_24" depart="560.0" departLane="random" departSpeed="10" />
    <vehicle id="114" type="standard_car" route="r_2_0_25" depart="560.0" departLane="random" departSpeed="10" />
    <vehicle id="115" type="standard_car" route="r_2_0_26" depart="561.0" departLane="random" departSpeed="10" />
    <vehicle id="116" type="standard_car" route="r_1_2_22" depart="567.0" departLane="random" departSpeed="10" />
    <vehicle id="117" type="standard_car" route="r_2_1_35" depart="574.0" departLane="random" departSpeed="10" />
    <vehicle id="118" type="standard_car" route="r_2_2_39" depart="578.0" departLane="random" departSpeed="10" />
    <vehicle id="119" type="standard_car" route="r_2_1_29" depart="585.0" departLane="random" departSpeed="10" />
    <vehicle id="120" type="standard_car" route="r_2_1_33" depart="585.0" departLane="random" departSpeed="10" />
    <vehicle id="121" type="standard_car" route="r_1_0_8" depart="586.0" departLane="random" departSpeed="10" />
    <vehicle id="122" type="standard_car" route="r_2_1_30" depart="587.0" departLane="random" departSpeed="10" />
    <vehicle id="123" type="standard_car" route="r_2_2_39" depart="588.0" departLane="random" departSpeed="10" />
    <vehicle id="124" type="standard_car" route="r_1_1_14" depart="590.0" departLane="random" departSpeed="10" />
    <vehicle id="125" type="standard_car" route="r_1_0_7" depart="591.0" departLane="random" departSpeed="10" />
    <vehicle id="126" type="standard_car" route="r_3_1_45" depart="595.0" departLane="random" departSpeed="10" />
    <vehicle id="127" type="standard_car" route="r_0_2_3" depart="598.0" departLane="random" departSpeed="10" />
    <vehicle id="128" type="standard_car" route="r_1_0_9" depart="598.0" departLane="random" departSpeed="10" />
    <vehicle id="129" type="standard_car" route="r_4_0_54" depart="599.0" departLane="random" departSpeed="10" />
    <vehicle id="130" type="standard_car" route="r_2_1_35" depart="602.0" departLane="random" departSpeed="10" />
    <vehicle id="131" type="standard_car" route="r_3_1_46" depart="605.0" departLane="random" departSpeed="10" />
    <vehicle id="132" type="standard_car" route="r_2_1_32" depart="605.0" departLane="random" departSpeed="10" />
    <vehicle id="133" type="standard_car" route="r_2_1_29" depart="605.0" departLane="random" departSpeed="10" />
    <vehicle id="134" type="standard_car" route="r_1_1_12" depart="606.0" departLane="random" departSpeed="10" />
    <vehicle id="135" type="standard_car" route="r_4_0_55" depart="606.0" departLane="random" departSpeed="10" />
    <vehicle id="136" type="standard_car" route="r_1_0_4" depart="610.0" departLane="random" departSpeed="10" />
    <vehicle id="137" type="standard_car" route="r_3_1_45" depart="613.0" departLane="random" departSpeed="10" />
    <vehicle id="138" type="standard_car" route="r_2_1_35" depart="613.0" departLane="random" departSpeed="10" />
    <vehicle id="139" type="standard_car" route="r_1_2_23" depart="617.0" departLane="random" departSpeed="10" />
    <vehicle id="140" type="standard_car" route="r_1_2_20" depart="619.0" departLane="random" departSpeed="10" />
    <vehicle id="141" type="standard_car" route="r_4_0_52" depart="630.0" departLane="random" departSpeed="10" />
    <vehicle id="142" type="standard_car" route="r_3_0_41" depart="631.0" departLane="random" departSpeed="10" />
    <vehicle id="143" type="standard_car" route="r_1_0_11" depart="635.0" departLane="random" departSpeed="10" />
    <vehicle id="144" type="standard_car" route="r_3_1_45" depart="639.0" departLane="random" departSpeed="10" />
    <vehicle id="145" type="standard_car" route="r_1_1_17" depart="640.0" departLane="random" departSpeed="10" />
    <vehicle id="146" type="standard_car" route="r_2_1_30" depart="645.0" departLane="random" departSpeed="10" />
    <vehicle id="147" type="standard_car" route="r_3_0_42" depart="648.0" departLane="random" departSpeed="10" />
    <vehicle id="148" type="standard_car" route="r_1_1_17" depart="650.0" departLane="random" departSpeed="10" />
    <vehicle id="149" type="standard_car" route="r_3_0_42" depart="656.0" departLane="random" departSpeed="10" />
    <vehicle id="150" type="standard_car" route="r_3_0_43" depart="656.0" departLane="random" departSpeed="10" />
    <vehicle id="151" type="standard_car" route="r_2_1_32" depart="661.0" departLane="random" departSpeed="10" />
    <vehicle id="152" type="standard_car" route="r_1_0_10" depart="663.0" departLane="random" departSpeed="10" />
    <vehicle id="153" type="standard_car" route="r_1_0_8" depart="666.0" departLane="random" departSpeed="10" />
    <vehicle id="154" type="standard_car" route="r_3_1_50" depart="667.0" departLane="random" departSpeed="10" />
    <vehicle id="155" type="standard_car" route="r_4_0_53" depart="669.0" departLane="random" departSpeed="10" />
    <vehicle id="156" type="standard_car" route="r_3_1_49" depart="670.0" departLane="random" departSpeed="10" />
    <vehicle id="157" type="standard_car" route="r_1_2_21" depart="671.0" departLane="random" departSpeed="10" />
    <vehicle id="158" type="standard_car" route="r_2_2_37" depart="671.0" departLane="random" departSpeed="10" />
    <vehicle id="159" type="standard_car" route="r_1_0_5" depart="672.0" departLane="random" departSpeed="10" />
    <vehicle id="160" type="standard_car" route="r_2_1_32" depart="673.0" departLane="random" departSpeed="10" />
    <vehicle id="161" type="standard_car" route="r_0_2_3" depart="679.0" departLane="random" departSpeed="10" />
    <vehicle id="162" type="standard_car" route="r_1_1_15" depart="680.0" departLane="random" departSpeed="10" />
    <vehicle id="163" type="standard_car" route="r_2_0_24" depart="689.0" departLane="random" departSpeed="10" />
    <vehicle id="164" type="standard_car" route="r_3_1_44" depart="691.0" departLane="random" departSpeed="10" />
    <vehicle id="165" type="standard_car" route="r_2_2_39" depart="692.0" departLane="random" departSpeed="10" />
    <vehicle id="166" type="standard_car" route="r_2_1_35" depart="694.0" departLane="random" departSpeed="10" />
    <vehicle id="167" type="standard_car" route="r_3_0_41" depart="701.0" departLane="random" departSpeed="10" />
    <vehicle id="168" type="standard_car" route="r_4_0_52" depart="701.0" departLane="random" departSpeed="10" />
    <vehicle id="169" type="standard_car" route="r_3_1_46" depart="705.0" departLane="random" departSpeed="10" />
    <vehicle id="170" type="standard_car" route="r_1_0_5" depart="708.0" departLane="random" departSpeed="10" />
    <vehicle id="171" type="standard_car" route="r_3_1_45" depart="709.0" departLane="random" departSpeed="10" />
    <vehicle id="172" type="standard_car" route="r_1_0_5" depart="713.0" departLane="random" departSpeed="10" />
    <vehicle id="173" type="standard_car" route="r_3_1_51" depart="714.0" departLane="random" departSpeed="10" />
    <vehicle id="174" type="standard_car" route="r_2_1_29" depart="715.0" departLane="random" departSpeed="10" />
    <vehicle id="175" type="standard_car" route="r_1_2_20" depart="716.0" departLane="random" departSpeed="10" />
    <vehicle id="176" type="standard_car" route="r_3_1_46" depart="724.0" departLane="random" departSpeed="10" />
    <vehicle id="177" type="standard_car" route="r_4_0_52" depart="728.0" departLane="random" departSpeed="10" />
    <vehicle id="178" type="standard_car" route="r_0_2_2" depart="732.0" departLane="random" departSpeed="10" />
    <vehicle id="179" type="standard_car" route="r_2_0_24" depart="734.0" departLane="random" departSpeed="10" />
    <vehicle id="180" type="standard_car" route="r_2_0_24" depart="735.0" departLane="random" departSpeed="10" />
    <vehicle id="181" type="standard_car" route="r_1_0_7" depart="745.0" departLane="random" departSpeed="10" />
    <vehicle id="182" type="standard_car" route="r_2_2_39" depart="748.0" departLane="random" departSpeed="10" />
    <vehicle id="183" type="standard_car" route="r_1_1_15" depart="755.0" departLane="random" departSpeed="10" />
    <vehicle id="184" type="standard_car" route="r_1_1_19" depart="757.0" departLane="random" departSpeed="10" />
    <vehicle id="185" type="standard_car" route="r_2_1_34" depart="758.0" departLane="random" departSpeed="10" />
    <vehicle id="186" type="standard_car" route="r_2_0_25" depart="762.0" departLane="random" departSpeed="10" />
    <vehicle id="187" type="standard_car" route="r_1_0_9" depart="768.0" departLane="random" departSpeed="10" />
    <vehicle id="188" type="standard_car" route="r_1_0_6" depart="775.0" departLane="random" departSpeed="10" />
    <vehicle id="189" type="standard_car" route="r_3_1_45" depart="775.0" departLane="random" departSpeed="10" />
    <vehicle id="190" type="standard_car" route="r_3_1_48" depart="782.0" departLane="random" departSpeed="10" />
    <vehicle id="191" type="standard_car" route="r_4_0_55" depart="786.0" departLane="random" departSpeed="10" />
    <vehicle id="192" type="standard_car" route="r_0_2_3" depart="787.0" departLane="random" departSpeed="10" />
    <vehicle id="193" type="standard_car" route="r_4_0_54" depart="788.0" departLane="random" departSpeed="10" />
    <vehicle id="194" type="standard_car" route="r_1_1_13" depart="791.0" departLane="random" departSpeed="10" />
    <vehicle id="195" type="standard_car" route="r_1_0_5" depart="791.0" departLane="random" departSpeed="10" />
    <vehicle id="196" type="standard_car" route="r_3_1_46" depart="794.0" departLane="random" departSpeed="10" />
    <vehicle id="197" type="standard_car" route="r_1_0_11" depart="797.0" departLane="random" departSpeed="10" />
    <vehicle id="198" type="standard_car" route="r_3_1_44" depart="809.0" departLane="random" departSpeed="10" />
    <vehicle id="199" type="standard_car" route="r_0_2_1" depart="810.0" departLane="random" departSpeed="10" />
    <vehicle id="200" type="standard_car" route="r_2_0_24" depart="811.0" departLane="random" departSpeed="10" />
    <vehicle id="201" type="standard_car" route="r_2_0_27" depart="811.0" departLane="random" departSpeed="10" />
    <vehicle id="202" type="standard_car" route="r_1_0_8" depart="812.0" departLane="random" departSpeed="10" />
    <vehicle id="203" type="standard_car" route="r_3_1_51" depart="813.0" departLane="random" departSpeed="10" />
    <vehicle id="204" type="standard_car" route="r_2_2_38" depart="823.0" departLane="random" departSpeed="10" />
    <vehicle id="205" type="standard_car" route="r_2_2_38" depart="823.0" departLane="random" departSpeed="10" />
    <vehicle id="206" type="standard_car" route="r_2_1_28" depart="828.0" departLane="random" departSpeed="10" />
    <vehicle id="207" type="standard_car" route="r_1_0_9" depart="833.0" departLane="random" departSpeed="10" />
    <vehicle id="208" type="standard_car" route="r_2_0_27" depart="833.0" departLane="random" departSpeed="10" />
    <vehicle id="209" type="standard_car" route="r_2_0_26" depart="833.0" departLane="random" departSpeed="10" />
    <vehicle id="210" type="standard_car" route="r_3_1_49" depart="841.0" departLane="random" departSpeed="10" />
    <vehicle id="211" type="standard_car" route="r_3_1_45" depart="851.0" departLane="random" departSpeed="10" />
    <vehicle id="212" type="standard_car" route="r_3_1_45" depart="869.0" departLane="random" departSpeed="10" />
    <vehicle id="213" type="standard_car" route="r_1_0_4" depart="871.0" departLane="random" departSpeed="10" />
    <vehicle id="214" type="standard_car" route="r_2_1_29" depart="877.0" departLane="random" departSpeed="10" />
    <vehicle id="215" type="standard_car" route="r_1_2_23" depart="879.0" departLane="random" departSpeed="10" />
    <vehicle id="216" type="standard_car" route="r_2_1_28" depart="881.0" departLane="random" departSpeed="10" />
    <vehicle id="217" type="standard_car" route="r_1_0_10" depart="883.0" departLane="random" departSpeed="10" />
    <vehicle id="218" type="standard_car" route="r_3_0_42" depart="888.0" departLane="random" departSpeed="10" />
    <vehicle id="219" type="standard_car" route="r_3_1_45" depart="894.0" departLane="random" departSpeed="10" />
    <vehicle id="220" type="standard_car" route="r_2_2_36" depart="894.0" departLane="random" departSpeed="10" />
    <vehicle id="221" type="standard_car" route="r_1_1_15" depart="897.0" departLane="random" departSpeed="10" />
    <vehicle id="222" type="standard_car" route="r_3_1_47" depart="897.0" departLane="random" departSpeed="10" />
    <vehicle id="223" type="standard_car" route="r_4_0_53" depart="902.0" departLane="random" departSpeed="10" />
    <vehicle id="224" type="standard_car" route="r_3_1_47" depart="916.0" departLane="random" departSpeed="10" />
    <vehicle id="225" type="standard_car" route="r_4_0_55" depart="920.0" departLane="random" departSpeed="10" />
    <vehicle id="226" type="standard_car" route="r_1_0_7" depart="924.0" departLane="random" departSpeed="10" />
    <vehicle id="227" type="standard_car" route="r_1_0_6" depart="926.0" departLane="random" departSpeed="10" />
    <vehicle id="228" type="standard_car" route="r_1_1_19" depart="931.0" departLane="random" departSpeed="10" />