<routes>
            <vType accel="1.0" decel="4.5" id="standard_car" length="5.0" minGap="2.5" maxSpeed="25" sigma="0.5" />

            <route id="r_0_2_0" edges="N1_L_N1 N1_N2 N2_N2_R"/>
            <route id="r_0_2_1" edges="N2_D_N2 N2_N3 N3_N3_U"/>
            <route id="r_0_2_2" edges="N3_U_N3 N3_N2 N2_N2_D"/>
            <route id="r_0_2_3" edges="N4_U_N4 N4_N1 N1_N1_D"/>
            <route id="r_1_0_4" edges="N1_D_N1 N1_N1_L"/>
            <route id="r_1_0_5" edges="N1_L_N1 N1_N1_D"/>
            <route id="r_1_0_6" edges="N2_D_N2 N2_N2_R"/>
            <route id="r_1_0_7" edges="N2_R_N2 N2_N2_D"/>
            <route id="r_1_0_8" edges="N3_R_N3 N3_N3_U"/>
            <route id="r_1_0_9" edges="N3_U_N3 N3_N3_R"/>
            <route id="r_1_0_10" edges="N4_L_N4 N4_N4_U"/>
            <route id="r_1_0_11" edges="N4_U_N4 N4_N4_L"/>
            <route id="r_1_1_12" edges="N1_D_N1 N1_N2 N2_N2_R"/>
            <route id="r_1_1_13" edges="N1_L_N1 N1_N2 N2_N2_D"/>
            <route id="r_1_1_14" edges="N2_D_N2 N2_N3 N3_N3_R"/>
            <route id="r_1_1_15" edges="N2_R_N2 N2_N3 N3_N3_U"/>
            <route id="r_1_1_16" edges="N3_R_N3 N3_N2 N2_N2_D"/>
            <route id="r_1_1_17" edges="N3_U_N3 N3_N2 N2_N2_R"/>
            <route id="r_1_1_18" edges="N4_L_N4 N4_N1 N1_N1_D"/>
            <route id="r_1_1_19" edges="N4_U_N4 N4_N1 N1_N1_L"/>
            <route id="r_1_2_20" edges="N1_L_N1 N1_N2 N2_N3 N3_N3_U"/>
            <route id="r_1_2_21" edges="N2_D_N2 N2_N3 N3_N4 N4_N4_L"/>
            <route id="r_1_2_22" edges="N3_U_N3 N3_N2 N2_N1 N1_N1_L"/>
            <route id="r_1_2_23" edges="N4_U_N4 N4_N1 N1_N2 N2_N2_R"/>
            <route id="r_2_0_24" edges="N1_D_N1 N1_N2 N2_N2_D"/>
            <route id="r_2_0_25" edges="N2_R_N2 N2_N3 N3_N3_R"/>
            <route id="r_2_0_26" edges="N3_R_N3 N3_N2 N2_N2_R"/>
            <route id="r_2_0_27" edges="N4_L_N4 N4_N1 N1_N1_L"/>
            <route id="r_2_1_28" edges="N1_D_N1 N1_N2 N2_N3 N3_N3_U"/>
            <route id="r_2_1_29" edges="N1_L_N1 N1_N2 N2_N3 N3_N3_R"/>
            <route id="r_2_1_30" edges="N2_D_N2 N2_N3 N3_N4 N4_N4_U"/>
            <route id="r_2_1_31" edges="N2_R_N2 N2_N3 N3_N4 N4_N4_L"/>
            <route id="r_2_1_32" edges="N3_R_N3 N3_N2 N2_N1 N1_N1_L"/>
            <route id="r_2_1_33" edges="N3_U_N3 N3_N2 N2_N1 N1_N1_D"/>
            <route id="r_2_1_34" edges="N4_L_N4 N4_N1 N1_N2 N2_N2_R"/>
            <route id="r_2_1_35" edges="N4_U_N4 N4_N1 N1_N2 N2_N2_D"/>
            <route id="r_2_2_36" edges="N1_L_N1 N1_N2 N2_N3 N3_N4 N4_N4_L"/>
            <route id="r_2_2_37" edges="N2_D_N2 N2_N3 N3_N4 N4_N1 N1_N1_D"/>
            <route id="r_2_2_38" edges="N3_U_N3 N3_N2 N2_N1 N1_N4 N4_N4_U"/>
            <route id="r_2_2_39" edges="N4_U_N4 N4_N1 N1_N2 N2_N3 N3_N3_U"/>
            <route id="r_3_0_40" edges="N1_D_N1 N1_N2 N2_N3 N3_N3_R"/>
            <route id="r_3_0_41" edges="N2_R_N2 N2_N3 N3_N4 N4_N4_U"/>
            <route id="r_3_0_42" edges="N3_R_N3 N3_N2 N2_N1 N1_N1_D"/>
            <route id="r_3_0_43" edges="N4_L_N4 N4_N1 N1_N2 N2_N2_D"/>
            <route id="r_3_1_44" edges="N1_D_N1 N1_N2 N2_N3 N3_N4 N4_N4_L"/>
            <route id="r_3_1_45" edges="N1_L_N1 N1_N2 N2_N3 N3_N4 N4_N4_U"/>
            <route id="r_3_1_46" edges="N2_D_N2 N2_N3 N3_N4 N4_N1 N1_N1_L"/>
            <route id="r_3_1_47" edges="N2_R_N2 N2_N3 N3_N4 N4_N1 N1_N1_D"/>
            <route id="r_3_1_48" edges="N3_R_N3 N3_N2 N2_N1 N1_N4 N4_N4_U"/>
            <route id="r_3_1_49" edges="N3_U_N3 N3_N2 N2_N1 N1_N4 N4_N4_L"/>
            <route id="r_3_1_50" edges="N4_L_N4 N4_N1 N1_N2 N2_N3 N3_N3_U"/>
            <route id="r_3_1_51" edges="N4_U_N4 N4_N1 N1_N2 N2_N3 N3_N3_R"/>
            <route id="r_4_0_52" edges="N1_D_N1 N1_N2 N2_N3 N3_N4 N4_N4_U"/>
            <route id="r_4_0_53" edges="N2_R_N2 N2_N3 N3_N4 N4_N1 N1_N1_L"/>
            <route id="r_4_0_54" edges="N3_R_N3 N3_N2 N2_N1 N1_N4 N4_N4_L"/>
            <route id="r_4_0_55" edges="N4_L_N4 N4_N1 N1_N2 N2_N3 N3_N3_R"/>
    <vehicle id="0" type="standard_car" route="r_0_2_0" depart="82.0" departLane="random" departSpeed="10" />
    <vehicle id="1" type="standard_car" route="r_1_0_6" depart="98.0" departLane="random" departSpeed="10" />
    <vehicle id="2" type="standard_car" route="r_3_0_41" depart="106.0" departLane="random" departSpeed="10" />
    <vehicle id="3" type="standard_car" route="r_1_1_16" depart="134.0" departLane="random" departSpeed="10" />
    <vehicle id="4" type="standard_car" route="r_2_1_32" depart="138.0" departLane="random" departSpeed="10" />
    <vehicle id="5" type="standard_car" route="r_3_1_49" depart="143.0" departLane="random" departSpeed="10" />
    <vehicle id="6" type="standard_car" route="r_1_0_9" depart="167.0" departLane="random" departSpeed="10" />
    <vehicle id="7" type="standard_car" route="r_2_1_28" depart="170.0" departLane="random" departSpeed="10" />
    <vehicle id="8" type="standard_car" route="r_4_0_54" depart="182.0" departLane="random" departSpeed="10" />
    <vehicle id="9" type="standard_car" route="r_3_0_43" depart="184.0" departLane="random" departSpeed="10" />
    <vehicle id="10" type="standard_car" route="r_2_0_24" depart="188.0" departLane="random" departSpeed="10" />
    <vehicle id="11" type="standard_car" route="r_2_0_25" depart="193.0" departLane="random" departSpeed="10" />
    <vehicle id="12" type="standard_car" route="r_2_0_25" depart="193.0" departLane="random" departSpeed="10" />
    <vehicle id="13" type="standard_car" route="r_2_1_35" depart="200.0" departLane="random" departSpeed="10" />
    <vehicle id="14" type="standard_car" route="r_1_1_19" depart="205.0" departLane="random" departSpeed="10" />
    <vehicle id="15" type="standard_car" route="r_1_0_8" depart="207.0" departLane="random" departSpeed="10" />
    <vehicle id="16" type="standard_car" route="r_3_1_50" depart="216.0" departLane="random" departSpeed="10" />
    <vehicle id="17" type="standard_car" route="r_1_0_5" depart="216.0" departLane="random" departSpeed="10" />
    <vehicle id="18" type="standard_car" route="r_3_1_44" depart="224.0" departLane="random" departSpeed="10" />
    <vehicle id="19" type="standard_car" route="r_0_2_3" depart="226.0" departLane="random" departSpeed="10" />
    <vehicle id="20" type="standard_car" route="r_2_0_27" depart="229.0" departLane="random" departSpeed="10" />
    <vehicle id="21" type="standard_car" route="r_2_2_38" depart="234.0" departLane="random" departSpeed="10" />
    <vehicle id="22" type="standard_car" route="r_1_1_14" depart="234.0" departLane="random" departSpeed="10" />
    <vehicle id="23" type="standard_car" route="r_0_2_0" depart="235.0" departLane="random" departSpeed="10" />
    <vehicle id="24" type="standard_car" route="r_2_1_33" depart="235.0" departLane="random" departSpeed="10" />
    <vehicle id="25" type="standard_car" route="r_2_0_26" depart="250.0" departLane="random" departSpeed="10" />
    <vehicle id="26" type="standard_car" route="r_1_1_17" depart="256.0" departLane="random" departSpeed="10" />
    <vehicle id="27" type="standard_car" route="r_1_0_6" depart="257.0" departLane="random" departSpeed="10" />
    <vehicle id="28" type="standard_car" route="r_1_0_10" depart="259.0" departLane="random" departSpeed="10" />
    <vehicle id="29" type="standard_car" route="r_3_1_48" depart="268.0" departLane="random" departSpeed="10" />
    <vehicle id="30" type="standard_car" route="r_1_0_9" depart="273.0" departLane="random" departSpeed="10" />
    <vehicle id="31" type="standard_car" route="r_0_2_3" depart="278.0" departLane="random" departSpeed="10" />
    <vehicle id="32" type="standard_car" route="r_2_2_37" depart="282.0" departLane="random" departSpeed="10" />
    <vehicle id="33" type="standard_car" route="r_2_1_35" depart="291.0" departLane="random" departSpeed="10" />
    <vehicle id="34" type="standard_car" route="r_1_1_19" depart="292.0" departLane="random" departSpeed="10" />
    <vehicle id="35" type="standard_car" route="r_3_0_41" depart="294.0" departLane="random" departSpeed="10" />
    <vehicle id="36" type="standard_car" route="r_1_1_18" depart="299.0" departLane="random" departSpeed="10" />
    <vehicle id="37" type="standard_car" route="r_2_1_35" depart="305.0" departLane="random" departSpeed="10" />
    <vehicle id="38" type="standard_car" route="r_1_2_22" depart="308.0" departLane="random" departSpeed="10" />
    <vehicle id="39" type="standard_car" route="r_1_0_9" depart="313.0" departLane="random" departSpeed="10" />
    <vehicle id="40" type="standard_car" route="r_2_2_36" depart="324.0" departLane="random" departSpeed="10" />
    <vehicle id="41" type="standard_car" route="r_0_2_0" depart="325.0" departLane="random" departSpeed="10" />
    <vehicle id="42" type="standard_car" route="r_1_0_9" depart="337.0" departLane="random" departSpeed="10" />
    <vehicle id="43" type="standard_car" route="r_2_1_30" depart="339.0" departLane="random" departSpeed="10" />
    <vehicle id="44" type="standard_car" route="r_2_1_35" depart="340.0" departLane="random" departSpeed="10" />
    <vehicle id="45" type="standard_car" route="r_2_0_27" depart="348.0" departLane="random" departSpeed="10" />
    <vehicle id="46" type="standard_car" route="r_3_0_40" depart="356.0" departLane="random" departSpeed="10" />
    <vehicle id="47" type="standard_car" route="r_2_0_25" depart="359.0" departLane="random" departSpeed="10" />
    <vehicle id="48" type="standard_car" route="r_3_1_47" depart="359.0" departLane="random" departSpeed="10" />
    <vehicle id="49" type="standard_car" route="r_2_1_29" depart="360.0" departLane="random" departSpeed="10" />
    <vehicle id="50" type="standard_car" route="r_2_2_38" depart="366.0" departLane="random" departSpeed="10" />
    <vehicle id="51" type="standard_car" route="r_0_2_2" depart="375.0" departLane="random" departSpeed="10" />
    <vehicle id="52" type="standard_car" route="r_1_1_14" depart="384.0" departLane="random" departSpeed="10" />
    <vehicle id="53" type="standard_car" route="r_3_1_45" depart="386.0" departLane="random" departSpeed="10" />
    <vehicle id="54" type="standard_car" route="r_2_0_24" depart="394.0" departLane="random" departSpeed="10" />
    <vehicle id="55" type="standard_car" route="r_3_1_51" depart="395.0" departLane="random" departSpeed="10" />
    <vehicle id="56" type="standard_car" route="r_1_2_22" depart="413.0" departLane="random" departSpeed="10" />
    <vehicle id="57" type="standard_car" route="r_1_2_23" depart="413.0" departLane="random" departSpeed="10" />
    <vehicle id="58" type="standard_car" route="r_2_2_37" depart="423.0" departLane="random" departSpeed="10" />
    <vehicle id="59" type="standard_car" route="r_1_1_12" depart="426.0" departLane="random" departSpeed="10" />
    <vehicle id="60" type="standard_car" route="r_3_1_50" depart="429.0" departLane="random" departSpeed="10" />
    <vehicle id="61" type="standard_car" route="r_3_1_51" depart="431.0" departLane="random" departSpeed="10" />
    <vehicle id="62" type="standard_car" route="r_4_0_53" depart="439.0" departLane="random" departSpeed="10" />
    <vehicle id="63" type="standard_car" route="r_2_0_25" depart="446.0" departLane="random" departSpeed="10" />
    <vehicle id="64" type="standard_car" route="r_3_0_43" depart="447.0" departLane="random" departSpeed="10" />
    <vehicle id="65" type="standard_car" route="r_3_0_41" depart="448.0" departLane="random" departSpeed="10" />
    <vehicle id="66" type="standard_car" route="r_1_2_23" depart="451.0" departLane="random" departSpeed="10" />
    <vehicle id="67" type="standard_car" route="r_1_0_6" depart="465.0" departLane="random" departSpeed="10" />
    <vehicle id="68" type="standard_car" route="r_3_0_41" depart="466.0" departLane="random" departSpeed="10" />
    <vehicle id="69" type="standard_car" route="r_1_0_8" depart="481.0" departLane="random" departSpeed="10" />
    <vehicle id="70" type="standard_car" route="r_1_2_21" depart="489.0" departLane="random" departSpeed="10" />
    <vehicle id="71" type="standard_car" route="r_0_2_2" depart="490.0" departLane="random" departSpeed="10" />
    <vehicle id="72" type="standard_car" route="r_1_2_23" depart="491.0" departLane="random" departSpeed="10" />
    <vehicle id="73" type="standard_car" route="r_2_2_38" depart="508.0" departLane="random" departSpeed="10" />
    <vehicle id="74" type="standard_car" route="r_2_2_37" depart="508.0" departLane="random" departSpeed="10" />
    <vehicle id="75" type="standard_car" route="r_2_1_33" depart="509.0" departLane="random" departSpeed="10" />
    <vehicle id="76" type="standard_car" route="r_1_0_5" depart="520.0" departLane="random" departSpeed="10" />
    <vehicle id="77" type="standard_car" route="r_3_1_51" depart="522.0" departLane="random" departSpeed="10" />
    <vehicle id="78" type="standard_car" route="r_0_2_1" depart="523.0" departLane="random" departSpeed="10" />
    <vehicle id="79" type="standard_car" route="r_2_2_37" depart="523.0" departLane="random" departSpeed="10" />
    <vehicle id="80" type="standard_car" route="r_2_1_29" depart="523.0" departLane="random" departSpeed="10" />
    <vehicle id="81" type="standard_car" route="r_2_0_24" depart="524.0" departLane="random" departSpeed="10" />
    <vehicle id="82" type="standard_car" route="r_1_2_22" depart="525.0" departLane="random" departSpeed="10" />
    <vehicle id="83" type="standard_car" route="r_1_0_6" depart="536.0" departLane="random" departSpeed="10" />
    <vehicle id="84" type="standard_car" route="r_1_1_16" depart="536.0" departLane="random" departSpeed="10" />
    <vehicle id="85" type="standard_car" route="r_1_1_14" depart="539.0" departLane="random" departSpeed="10" />
    <vehicle id="86" type="standard_car" route="r_4_0_55" depart="539.0" departLane="random" departSpeed="10" />
    <vehicle id="87" type="standard_car" route="r_2_0_25" depart="547.0" departLane="random" departSpeed="10" />
    <vehicle id="88" type="standard_car" route="r_3_0_42" depart="553.0" departLane="random" departSpeed="10" />
    <vehicle id="89" type="standard_car" route="r_1_1_17" depart="554.0" departLane="random" departSpeed="10" />
    <vehicle id="90" type="standard_car" route="r_2_2_39" depart="560.0" departLane="random" departSpeed="10" />
    <vehicle id="91" type="standard_car" route="r_3_1_45" depart="560.0" departLane="random" departSpeed="10" />
    <vehicle id="92" type="standard_car" route="r_3_0_40" depart="572.0" departLane="random" departSpeed="10" />
    <vehicle id="93" type="standard_car" route="r_1_1_12" depart="573.0" departLane="random" departSpeed="10" />
    <vehicle id="94" type="standard_car" route="r_1_1_17" depart="583.0" departLane="random" departSpeed="10" />
    <vehicle id="95" type="standard_car" route="r_1_0_9" depart="592.0" departLane="random" departSpeed="10" />
    <vehicle id="96" type="standard_car" route="r_4_0_52" depart="595.0" departLane="random" departSpeed="10" />
    <vehicle id="97" type="standard_car" route="r_3_1_44" depart="609.0" departLane="random" departSpeed="10" />
    <vehicle id="98" type="standard_car" route="r_1_0_10" depart="611.0" departLane="random" departSpeed="10" />
    <vehicle id="99" type="standard_car" route="r_2_1_34" depart="614.0" departLane="random" departSpeed="10" />
    <vehicle id="100" type="standard_car" route="r_4_0_53" depart="618.0" departLane="random" departSpeed="10" />
    <vehicle id="101" type="standard_car" route="r_3_1_46" depart="619.0" departLane="random" departSpeed="10" />
    <vehicle id="102" type="standard_car" route="r_0_2_3" depart="640.0" departLane="random" departSpeed="10" />
    <vehicle id="103" type="standard_car" route="r_1_0_9" depart="644.0" departLane="random" departSpeed="10" />
    <vehicle id="104" type="standard_car" route="r_3_0_41" depart="645.0" departLane="random" departSpeed="10" />
    <vehicle id="105" type="standard_car" route="r_1_0_8" depart="653.0" departLane="random" departSpeed="10" />
    <vehicle id="106" type="standard_car" route="r_1_2_20" depart="661.0" departLane="random" departSpeed="10" />
    <vehicle id="107" type="standard_car" route="r_4_0_54" depart="666.0" departLane="random" departSpeed="10" />
    <vehicle id="108" type="standard_car" route="r_1_2_22" depart="678.0" departLane="random" departSpeed="10" />
    <vehicle id="109" type="standard_car" route="r_2_1_32" depart="686.0" departLane="random" departSpeed="10" />
    <vehicle id="110" type="standard_car" route="r_2_1_29" depart="689.0" departLane="random" departSpeed="10" />
    <vehicle id="111" type="standard_car" route="r_2_1_32" depart="691.0" departLane="random" departSpeed="10" />
    <vehicle id="112" type="standard_car" route="r_2_1_30" depart="698.0" departLane="random" departSpeed="10" />
    <vehicle id="113" type="standard_car" route="r_1_1_17" depart="707.0" departLane="random" departSpeed="10" />
    <vehicle id="114" type="standard_car" route="r_1_0_5" depart="710.0" departLane="random" departSpeed="10" />
    <vehicle id="115" type="standard_car" route="r_2_1_33" depart="714.0" departLane="random" departSpeed="10" />
    <vehicle id="116" type="standard_car" route="r_1_0_4" depart="717.0" departLane="random" departSpeed="10" />
    <vehicle id="117" type="standard_car" route="r_1_0_5" depart="719.0" departLane="random" departSpeed="10" />
    <vehicle id="118" type="standard_car" route="r_3_1_48" depart="722.0" departLane="random" departSpeed="10" />
    <vehicle id="119" type="standard_car" route="r_3_1_47" depart="725.0" departLane="random" departSpeed="10" />
    <vehicle id="120" type="standard_car" route="r_2_0_25" depart="725.0" departLane="random" departSpeed="10" />
    <vehicle id="121" type="standard_car" route="r_2_0_25" depart="749.0" departLane="random" departSpeed="10" />
    <vehicle id="122" type="standard_car" route="r_2_2_36" depart="756.0" departLane="random" departSpeed="10" />
    <vehicle id="123" type="standard_car" route="r_3_1_51" depart="759.0" departLane="random" departSpeed="10" />
    <vehicle id="124" type="standard_car" route="r_4_0_52" depart="760.0" departLane="random" departSpeed="10" />
    <vehicle id="125" type="standard_car" route="r_0_2_0" depart="763.0" departLane="random" departSpeed="10" />
    <vehicle id="126" type="standard_car" route="r_4_0_52" depart="765.0" departLane="random" departSpeed="10" />
    <vehicle id="127" type="standard_car" route="r_1_1_18" depart="772.0" departLane="random" departSpeed="10" />
    <vehicle id="128" type="standard_car" route="r_4_0_55" depart="774.0" departLane="random" departSpeed="10" />
    <vehicle id="129" type="standard_car" route="r_2_1_34" depart="780.0" departLane="random" departSpeed="10" />
    <vehicle id="130" type="standard_car" route="r_2_1_35" depart="782.0" departLane="random" departSpeed="10" />
    <vehicle id="131" type="standard_car" route="r_0_2_1" depart="799.0" departLane="random" departSpeed="10" />
    <vehicle id="132" type="standard_car" route="r_1_2_20" depart="800.0" departLane="random" departSpeed="10" />
    <vehicle id="133" type="standard_car" route="r_2_0_26" depart="804.0" departLane="random" departSpeed="10" />
    <vehicle id="134" type="standard_car" route="r_1_0_10" depart="810.0" departLane="random" departSpeed="10" />
    <vehicle id="135" type="standard_car" route="r_1_1_13" depart="812.0" departLane="random" departSpeed="10" />
    <vehicle id="136" type="standard_car" route="r_2_1_28" depart="823.0" departLane="random" departSpeed="10" />
    <vehicle id="137" type="standard_car" route="r_2_0_24" depart="839.0" departLane="random" departSpeed="10" />
    <vehicle id="138" type="standard_car" route="r_0_2_3" depart="842.0" departLane="random" departSpeed="10" />
    <vehicle id="139" type="standard_car" route="r_1_0_4" depart="845.0" departLane="random" departSpeed="10" />
    <vehicle id="140" type="standard_car" route="r_2_1_35" depart="846.0" departLane="random" departSpeed="10" />
    <vehicle id="141" type="standard_car" route="r_4_0_55" depart="849.0" departLane="random" departSpeed="10" />
    <vehicle id="142" type="standard_car" route="r_2_2_39" depart="864.0" departLane="random" departSpeed="10" />
    <vehicle id="143" type="standard_car" route="r_3_0_40" depart="866.0" departLane="random" departSpeed="10" />
    <vehicle id="144" type="standard_car" route="r_4_0_53" depart="889.0" departLane="random" departSpeed="10" />
    <vehicle id="145" type="standard_car" route="r_1_0_11" depart="891.0" departLane="random" departSpeed="10" />
    <vehicle id="146" type="standard_car" route="r_3_1_44" depart="891.0" departLane="random" departSpeed="10" />
    <vehicle id="147" type="standard_car" route="r_0_2_3" depart="892.0" departLane="random" departSpeed="10" />
    <vehicle id="148" type="standard_car" route="r_1_1_17" depart="897.0" departLane="random" departSpeed="10" />
    <vehicle id="149" type="standard_car" route="r_1_0_5" depart="913.0" departLane="random" departSpeed="10" />
    <vehicle id="150" type="standard_car" route="r_3_1_47" depart="930.0" departLane="random" departSpeed="10" />
    <vehicle id="151" type="standard_car" route="r_4_0_53" depart="935.0" departLane="random" departSpeed="10" />
    <vehicle id="152" type="standard_car" route="r_1_0_9" depart="942.0" departLane="random" departSpeed="10" />
    <vehicle id="153" type="standard_car" route="r_2_0_27" depart="944.0" departLane="random" departSpeed="10" />
    <vehicle id="154" type="standard_car" route="r_2_1_34" depart="953.0" departLane="random" departSpeed="10" />
    <vehicle id="155" type="standard_car" route="r_1_0_9" depart="953.0" departLane="random" departSpeed="10" />
    <vehicle id="156" type="standard_car" route="r_3_0_42" depart="956.0" departLane="random" departSpeed="10" />
    <vehicle id="157" type="standard_car" route="r_1_2_20" depart="957.0" departLane="random" departSpeed="10" />
    <vehicle id="158" type="standard_car" route="r_3_1_47" depart="981.0" departLane="random" departSpeed="10" />
    <vehicle id="159" type="standard_car" route="r_3_1_49" depart="991.0" departLane="random" departSpeed="10" />
    <vehicle id="160" type="standard_car" route="r_3_0_40" depart="1008.0" departLane="random" departSpeed="10" />
    <vehicle id="161" type="standard_car" route="r_2_0_26" depart="1025.0" departLane="random" departSpeed="10" />
    <vehicle id="162" type="standard_car" route="r_3_1_50" depart="1042.0" departLane="random" departSpeed="10" />
    <vehicle id="163" type="standard_car" route="r_3_0_41" depart="1049.0" departLane="random" departSpeed="10" />
    <vehicle id="164" type="standard_car" route="r_4_0_55" depart="1057.0" departLane="random" departSpeed="10" />
    <vehicle id="165" type="standard_car" route="r_4_0_53" depart="1070.0" departLane="random" departSpeed="10" />
    <vehicle id="166" type="standard_car" route="r_3_0_41" depart="1070.0" departLane="random" departSpeed="10" />
    <vehicle id="167" type="standard_car" route="r_2_2_39" depart="1073.0" departLane="random" departSpeed="10" />
    <vehicle id="168" type="standard_car" route="r_3_1_48" depart="1074.0" departLane="random" departSpeed="10" />
    <vehicle id="169" type="standard_car" route="r_2_2_36" depart="1096.0" departLane="random" departSpeed="10" />
    <vehicle id="170" type="standard_car" route="r_2_0_24" depart="1096.0" departLane="random" departSpeed="10" />
    <vehicle id="171" type="standard_car" route="r_3_1_50" depart="1115.0" departLane="random" departSpeed="10" />
    <vehicle id="172" type="standard_car" route="r_1_1_13" depart="1116.0" departLane="random" departSpeed="10" />
    <vehicle id="173" type="standard_car" route="r_1_0_7" depart="1119.0" departLane="random" departSpeed="10" />
    <vehicle id="174" type="standard_car" route="r_4_0_53" depart="1120.0" departLane="random" departSpeed="10" />
    <vehicle id="175" type="standard_car" route="r_1_0_4" depart="1125.0" departLane="random" departSpeed="10" />
    <vehicle id="176" type="standard_car" route="r_2_0_24" depart="1130.0" departLane="random" departSpeed="10" />
    <vehicle id="177" type="standard_car" route="r_1_0_5" depart="1131.0" departLane="random" departSpeed="10" />
    <vehicle id="178" type="standard_car" route="r_2_1_35" depart="1146.0" departLane="random" departSpeed="10" />
    <vehicle id="179" type="standard_car" route="r_2_1_32" depart="1159.0" departLane="random" departSpeed="10" />
    <vehicle id="180" type="standard_car" route="r_3_0_43" depart="1196.0" departLane="random" departSpeed="10" />
    <vehicle id="181" type="standard_car" route="r_2_0_27" depart="1209.0" departLane="random" departSpeed="10" />
    <vehicle id="182" type="standard_car" route="r_1_2_21" depart="1210.0" departLane="random" departSpeed="10" />
    <vehicle id="183" type="standard_car" route="r_1_0_7" depart="1242.0" departLane="random" departSpeed="10" />
    <vehicle id="184" type="standard_car" route="r_2_1_35" depart="1247.0" departLane="random" departSpeed="10" />
    <vehicle id="185" type="standard_car" route="r_3_1_49" depart="1274.0" departLane="random" departSpeed="10" />
    <vehicle id="186" type="standard_car" route="r_2_1_29" depart="1324.0" departLane="random" departSpeed="10" />
    <vehicle id="187" type="standard_car" route="r_1_0_8" depart="1328.0" departLane="random" departSpeed="10" />
    <vehicle id="188" type="standard_car" route="r_2_1_29" depart="1338.0" departLane="random" departSpeed="10" />
    <vehicle id="189" type="standard_car" route="r_3_0_42" depart="1367.0" departLane="random" departSpeed="10" />
    <vehicle id="190" type="standard_car" route="r_3_1_50" depart="1382.0" departLane="random" departSpeed="10" />
    <vehicle id="191" type="standard_car" route="r_1_0_4" depart="1431.0" departLane="random" departSpeed="10" />
    <vehicle id="192" type="standard_car" route="r_2_2_38" depart="1480.0" departLane="random" departSpeed="10" />
    <vehicle id="193" type="standard_car" route="r_2_2_36" depart="1508.0" departLane="random" departSpeed="10" />
    <vehicle id="194" type="standard_car" route="r_1_0_4" depart="1530.0" departLane="random" departSpeed="10" />
    <vehicle id="195" type="standard_car" route="r_3_0_42" depart="1612.0" departLane="random" departSpeed="10" />
    <vehicle id="196" type="standard_car" route="r_3_0_40" depart="1620.0" departLane="random" departSpeed="10" />
    <vehicle id="197" type="standard_car" route="r_4_0_55" depart="1637.0" departLane="random" departSpeed="10" />
    <vehicle id="198" type="standard_car" route="r_3_1_49" depart="1819.0" departLane="random" departSpeed="10" />
    <vehicle id="199" type="standard_car" route="r_2_2_37" depart="1954.0" departLane="random" departSpeed="10" />
</routes>
